
---------- Begin Simulation Statistics ----------
sim_seconds                                  0.000054                       # Number of seconds simulated
sim_ticks                                    53851500                       # Number of ticks simulated
final_tick                                   53851500                       # Number of ticks from beginning of simulation (restored from checkpoints and never reset)
sim_freq                                 1000000000000                       # Frequency of simulated ticks
host_inst_rate                                 128518                       # Simulator instruction rate (inst/s)
host_op_rate                                   135829                       # Simulator op (including micro ops) rate (op/s)
host_tick_rate                               55762930                       # Simulator tick rate (ticks/s)
host_mem_usage                                 658716                       # Number of bytes of host memory used
host_seconds                                     0.97                       # Real time elapsed on the host
sim_insts                                      124108                       # Number of instructions simulated
sim_ops                                        131171                       # Number of ops (including micro ops) simulated
system.voltage_domain.voltage                       1                       # Voltage in Volts
system.clk_domain.clock                          1000                       # Clock period in ticks
system.mem_ctrls.bytes_read::cpu0.inst          39488                       # Number of bytes read from this memory
system.mem_ctrls.bytes_read::cpu0.data          25472                       # Number of bytes read from this memory
system.mem_ctrls.bytes_read::cpu1.inst           3520                       # Number of bytes read from this memory
system.mem_ctrls.bytes_read::cpu1.data           1088                       # Number of bytes read from this memory
system.mem_ctrls.bytes_read::cpu2.inst           3456                       # Number of bytes read from this memory
system.mem_ctrls.bytes_read::cpu2.data           1088                       # Number of bytes read from this memory
system.mem_ctrls.bytes_read::cpu3.inst           3392                       # Number of bytes read from this memory
system.mem_ctrls.bytes_read::cpu3.data           1088                       # Number of bytes read from this memory
system.mem_ctrls.bytes_read::total              78592                       # Number of bytes read from this memory
system.mem_ctrls.bytes_inst_read::cpu0.inst        39488                       # Number of instructions bytes read from this memory
system.mem_ctrls.bytes_inst_read::cpu1.inst         3520                       # Number of instructions bytes read from this memory
system.mem_ctrls.bytes_inst_read::cpu2.inst         3456                       # Number of instructions bytes read from this memory
system.mem_ctrls.bytes_inst_read::cpu3.inst         3392                       # Number of instructions bytes read from this memory
system.mem_ctrls.bytes_inst_read::total         49856                       # Number of instructions bytes read from this memory
system.mem_ctrls.bytes_written::writebacks          832                       # Number of bytes written to this memory
system.mem_ctrls.bytes_written::total             832                       # Number of bytes written to this memory
system.mem_ctrls.num_reads::cpu0.inst             617                       # Number of read requests responded to by this memory
system.mem_ctrls.num_reads::cpu0.data             398                       # Number of read requests responded to by this memory
system.mem_ctrls.num_reads::cpu1.inst              55                       # Number of read requests responded to by this memory
system.mem_ctrls.num_reads::cpu1.data              17                       # Number of read requests responded to by this memory
system.mem_ctrls.num_reads::cpu2.inst              54                       # Number of read requests responded to by this memory
system.mem_ctrls.num_reads::cpu2.data              17                       # Number of read requests responded to by this memory
system.mem_ctrls.num_reads::cpu3.inst              53                       # Number of read requests responded to by this memory
system.mem_ctrls.num_reads::cpu3.data              17                       # Number of read requests responded to by this memory
system.mem_ctrls.num_reads::total                1228                       # Number of read requests responded to by this memory
system.mem_ctrls.num_writes::writebacks            13                       # Number of write requests responded to by this memory
system.mem_ctrls.num_writes::total                 13                       # Number of write requests responded to by this memory
system.mem_ctrls.bw_read::cpu0.inst         733275768                       # Total read bandwidth from this memory (bytes/s)
system.mem_ctrls.bw_read::cpu0.data         473004466                       # Total read bandwidth from this memory (bytes/s)
system.mem_ctrls.bw_read::cpu1.inst          65364939                       # Total read bandwidth from this memory (bytes/s)
system.mem_ctrls.bw_read::cpu1.data          20203708                       # Total read bandwidth from this memory (bytes/s)
system.mem_ctrls.bw_read::cpu2.inst          64176485                       # Total read bandwidth from this memory (bytes/s)
system.mem_ctrls.bw_read::cpu2.data          20203708                       # Total read bandwidth from this memory (bytes/s)
system.mem_ctrls.bw_read::cpu3.inst          62988032                       # Total read bandwidth from this memory (bytes/s)
system.mem_ctrls.bw_read::cpu3.data          20203708                       # Total read bandwidth from this memory (bytes/s)
system.mem_ctrls.bw_read::total            1459420815                       # Total read bandwidth from this memory (bytes/s)
system.mem_ctrls.bw_inst_read::cpu0.inst    733275768                       # Instruction read bandwidth from this memory (bytes/s)
system.mem_ctrls.bw_inst_read::cpu1.inst     65364939                       # Instruction read bandwidth from this memory (bytes/s)
system.mem_ctrls.bw_inst_read::cpu2.inst     64176485                       # Instruction read bandwidth from this memory (bytes/s)
system.mem_ctrls.bw_inst_read::cpu3.inst     62988032                       # Instruction read bandwidth from this memory (bytes/s)
system.mem_ctrls.bw_inst_read::total        925805224                       # Instruction read bandwidth from this memory (bytes/s)
system.mem_ctrls.bw_write::writebacks        15449895                       # Write bandwidth from this memory (bytes/s)
system.mem_ctrls.bw_write::total             15449895                       # Write bandwidth from this memory (bytes/s)
system.mem_ctrls.bw_total::writebacks        15449895                       # Total bandwidth to/from this memory (bytes/s)
system.mem_ctrls.bw_total::cpu0.inst        733275768                       # Total bandwidth to/from this memory (bytes/s)
system.mem_ctrls.bw_total::cpu0.data        473004466                       # Total bandwidth to/from this memory (bytes/s)
system.mem_ctrls.bw_total::cpu1.inst         65364939                       # Total bandwidth to/from this memory (bytes/s)
system.mem_ctrls.bw_total::cpu1.data         20203708                       # Total bandwidth to/from this memory (bytes/s)
system.mem_ctrls.bw_total::cpu2.inst         64176485                       # Total bandwidth to/from this memory (bytes/s)
system.mem_ctrls.bw_total::cpu2.data         20203708                       # Total bandwidth to/from this memory (bytes/s)
system.mem_ctrls.bw_total::cpu3.inst         62988032                       # Total bandwidth to/from this memory (bytes/s)
system.mem_ctrls.bw_total::cpu3.data         20203708                       # Total bandwidth to/from this memory (bytes/s)
system.mem_ctrls.bw_total::total           1474870709                       # Total bandwidth to/from this memory (bytes/s)
system.mem_ctrls.readReqs                        1229                       # Number of read requests accepted
system.mem_ctrls.writeReqs                         13                       # Number of write requests accepted
system.mem_ctrls.readBursts                      1229                       # Number of DRAM read bursts, including those serviced by the write queue
system.mem_ctrls.writeBursts                       13                       # Number of DRAM write bursts, including those merged in the write queue
system.mem_ctrls.bytesReadDRAM                  77824                       # Total number of bytes read from DRAM
system.mem_ctrls.bytesReadWrQ                     832                       # Total number of bytes read from write queue
system.mem_ctrls.bytesWritten                       0                       # Total number of bytes written to DRAM
system.mem_ctrls.bytesReadSys                   78656                       # Total read bytes from the system interface side
system.mem_ctrls.bytesWrittenSys                  832                       # Total written bytes from the system interface side
system.mem_ctrls.servicedByWrQ                     13                       # Number of DRAM read bursts serviced by the write queue
system.mem_ctrls.mergedWrBursts                     2                       # Number of DRAM write bursts merged with an existing one
system.mem_ctrls.neitherReadNorWriteReqs            7                       # Number of requests that are neither read nor write
system.mem_ctrls.perBankRdBursts::0               183                       # Per bank write bursts
system.mem_ctrls.perBankRdBursts::1               237                       # Per bank write bursts
system.mem_ctrls.perBankRdBursts::2               174                       # Per bank write bursts
system.mem_ctrls.perBankRdBursts::3               212                       # Per bank write bursts
system.mem_ctrls.perBankRdBursts::4                42                       # Per bank write bursts
system.mem_ctrls.perBankRdBursts::5                41                       # Per bank write bursts
system.mem_ctrls.perBankRdBursts::6               105                       # Per bank write bursts
system.mem_ctrls.perBankRdBursts::7                33                       # Per bank write bursts
system.mem_ctrls.perBankRdBursts::8                16                       # Per bank write bursts
system.mem_ctrls.perBankRdBursts::9                 8                       # Per bank write bursts
system.mem_ctrls.perBankRdBursts::10                0                       # Per bank write bursts
system.mem_ctrls.perBankRdBursts::11               15                       # Per bank write bursts
system.mem_ctrls.perBankRdBursts::12                8                       # Per bank write bursts
system.mem_ctrls.perBankRdBursts::13               40                       # Per bank write bursts
system.mem_ctrls.perBankRdBursts::14               39                       # Per bank write bursts
system.mem_ctrls.perBankRdBursts::15               63                       # Per bank write bursts
system.mem_ctrls.perBankWrBursts::0                 0                       # Per bank write bursts
system.mem_ctrls.perBankWrBursts::1                 0                       # Per bank write bursts
system.mem_ctrls.perBankWrBursts::2                 0                       # Per bank write bursts
system.mem_ctrls.perBankWrBursts::3                 0                       # Per bank write bursts
system.mem_ctrls.perBankWrBursts::4                 0                       # Per bank write bursts
system.mem_ctrls.perBankWrBursts::5                 0                       # Per bank write bursts
system.mem_ctrls.perBankWrBursts::6                 0                       # Per bank write bursts
system.mem_ctrls.perBankWrBursts::7                 0                       # Per bank write bursts
system.mem_ctrls.perBankWrBursts::8                 0                       # Per bank write bursts
system.mem_ctrls.perBankWrBursts::9                 0                       # Per bank write bursts
system.mem_ctrls.perBankWrBursts::10                0                       # Per bank write bursts
system.mem_ctrls.perBankWrBursts::11                0                       # Per bank write bursts
system.mem_ctrls.perBankWrBursts::12                0                       # Per bank write bursts
system.mem_ctrls.perBankWrBursts::13                0                       # Per bank write bursts
system.mem_ctrls.perBankWrBursts::14                0                       # Per bank write bursts
system.mem_ctrls.perBankWrBursts::15                0                       # Per bank write bursts
system.mem_ctrls.numRdRetry                         0                       # Number of times read queue was full causing retry
system.mem_ctrls.numWrRetry                         0                       # Number of times write queue was full causing retry
system.mem_ctrls.totGap                      53849000                       # Total gap between requests
system.mem_ctrls.readPktSize::0                     0                       # Read request sizes (log2)
system.mem_ctrls.readPktSize::1                     0                       # Read request sizes (log2)
system.mem_ctrls.readPktSize::2                     0                       # Read request sizes (log2)
system.mem_ctrls.readPktSize::3                     0                       # Read request sizes (log2)
system.mem_ctrls.readPktSize::4                     0                       # Read request sizes (log2)
system.mem_ctrls.readPktSize::5                     0                       # Read request sizes (log2)
system.mem_ctrls.readPktSize::6                  1229                       # Read request sizes (log2)
system.mem_ctrls.writePktSize::0                    0                       # Write request sizes (log2)
system.mem_ctrls.writePktSize::1                    0                       # Write request sizes (log2)
system.mem_ctrls.writePktSize::2                    0                       # Write request sizes (log2)
system.mem_ctrls.writePktSize::3                    0                       # Write request sizes (log2)
system.mem_ctrls.writePktSize::4                    0                       # Write request sizes (log2)
system.mem_ctrls.writePktSize::5                    0                       # Write request sizes (log2)
system.mem_ctrls.writePktSize::6                   13                       # Write request sizes (log2)
system.mem_ctrls.rdQLenPdf::0                     670                       # What read queue length does an incoming req see
system.mem_ctrls.rdQLenPdf::1                     294                       # What read queue length does an incoming req see
system.mem_ctrls.rdQLenPdf::2                     114                       # What read queue length does an incoming req see
system.mem_ctrls.rdQLenPdf::3                      55                       # What read queue length does an incoming req see
system.mem_ctrls.rdQLenPdf::4                      44                       # What read queue length does an incoming req see
system.mem_ctrls.rdQLenPdf::5                      18                       # What read queue length does an incoming req see
system.mem_ctrls.rdQLenPdf::6                      13                       # What read queue length does an incoming req see
system.mem_ctrls.rdQLenPdf::7                       4                       # What read queue length does an incoming req see
system.mem_ctrls.rdQLenPdf::8                       4                       # What read queue length does an incoming req see
system.mem_ctrls.rdQLenPdf::9                       0                       # What read queue length does an incoming req see
system.mem_ctrls.rdQLenPdf::10                      0                       # What read queue length does an incoming req see
system.mem_ctrls.rdQLenPdf::11                      0                       # What read queue length does an incoming req see
system.mem_ctrls.rdQLenPdf::12                      0                       # What read queue length does an incoming req see
system.mem_ctrls.rdQLenPdf::13                      0                       # What read queue length does an incoming req see
system.mem_ctrls.rdQLenPdf::14                      0                       # What read queue length does an incoming req see
system.mem_ctrls.rdQLenPdf::15                      0                       # What read queue length does an incoming req see
system.mem_ctrls.rdQLenPdf::16                      0                       # What read queue length does an incoming req see
system.mem_ctrls.rdQLenPdf::17                      0                       # What read queue length does an incoming req see
system.mem_ctrls.rdQLenPdf::18                      0                       # What read queue length does an incoming req see
system.mem_ctrls.rdQLenPdf::19                      0                       # What read queue length does an incoming req see
system.mem_ctrls.rdQLenPdf::20                      0                       # What read queue length does an incoming req see
system.mem_ctrls.rdQLenPdf::21                      0                       # What read queue length does an incoming req see
system.mem_ctrls.rdQLenPdf::22                      0                       # What read queue length does an incoming req see
system.mem_ctrls.rdQLenPdf::23                      0                       # What read queue length does an incoming req see
system.mem_ctrls.rdQLenPdf::24                      0                       # What read queue length does an incoming req see
system.mem_ctrls.rdQLenPdf::25                      0                       # What read queue length does an incoming req see
system.mem_ctrls.rdQLenPdf::26                      0                       # What read queue length does an incoming req see
system.mem_ctrls.rdQLenPdf::27                      0                       # What read queue length does an incoming req see
system.mem_ctrls.rdQLenPdf::28                      0                       # What read queue length does an incoming req see
system.mem_ctrls.rdQLenPdf::29                      0                       # What read queue length does an incoming req see
system.mem_ctrls.rdQLenPdf::30                      0                       # What read queue length does an incoming req see
system.mem_ctrls.rdQLenPdf::31                      0                       # What read queue length does an incoming req see
system.mem_ctrls.wrQLenPdf::0                       1                       # What write queue length does an incoming req see
system.mem_ctrls.wrQLenPdf::1                       1                       # What write queue length does an incoming req see
system.mem_ctrls.wrQLenPdf::2                       1                       # What write queue length does an incoming req see
system.mem_ctrls.wrQLenPdf::3                       1                       # What write queue length does an incoming req see
system.mem_ctrls.wrQLenPdf::4                       1                       # What write queue length does an incoming req see
system.mem_ctrls.wrQLenPdf::5                       1                       # What write queue length does an incoming req see
system.mem_ctrls.wrQLenPdf::6                       1                       # What write queue length does an incoming req see
system.mem_ctrls.wrQLenPdf::7                       1                       # What write queue length does an incoming req see
system.mem_ctrls.wrQLenPdf::8                       1                       # What write queue length does an incoming req see
system.mem_ctrls.wrQLenPdf::9                       1                       # What write queue length does an incoming req see
system.mem_ctrls.wrQLenPdf::10                      1                       # What write queue length does an incoming req see
system.mem_ctrls.wrQLenPdf::11                      0                       # What write queue length does an incoming req see
system.mem_ctrls.wrQLenPdf::12                      0                       # What write queue length does an incoming req see
system.mem_ctrls.wrQLenPdf::13                      0                       # What write queue length does an incoming req see
system.mem_ctrls.wrQLenPdf::14                      0                       # What write queue length does an incoming req see
system.mem_ctrls.wrQLenPdf::15                      0                       # What write queue length does an incoming req see
system.mem_ctrls.wrQLenPdf::16                      0                       # What write queue length does an incoming req see
system.mem_ctrls.wrQLenPdf::17                      0                       # What write queue length does an incoming req see
system.mem_ctrls.wrQLenPdf::18                      0                       # What write queue length does an incoming req see
system.mem_ctrls.wrQLenPdf::19                      0                       # What write queue length does an incoming req see
system.mem_ctrls.wrQLenPdf::20                      0                       # What write queue length does an incoming req see
system.mem_ctrls.wrQLenPdf::21                      0                       # What write queue length does an incoming req see
system.mem_ctrls.wrQLenPdf::22                      0                       # What write queue length does an incoming req see
system.mem_ctrls.wrQLenPdf::23                      0                       # What write queue length does an incoming req see
system.mem_ctrls.wrQLenPdf::24                      0                       # What write queue length does an incoming req see
system.mem_ctrls.wrQLenPdf::25                      0                       # What write queue length does an incoming req see
system.mem_ctrls.wrQLenPdf::26                      0                       # What write queue length does an incoming req see
system.mem_ctrls.wrQLenPdf::27                      0                       # What write queue length does an incoming req see
system.mem_ctrls.wrQLenPdf::28                      0                       # What write queue length does an incoming req see
system.mem_ctrls.wrQLenPdf::29                      0                       # What write queue length does an incoming req see
system.mem_ctrls.wrQLenPdf::30                      0                       # What write queue length does an incoming req see
system.mem_ctrls.wrQLenPdf::31                      0                       # What write queue length does an incoming req see
system.mem_ctrls.wrQLenPdf::32                      0                       # What write queue length does an incoming req see
system.mem_ctrls.wrQLenPdf::33                      0                       # What write queue length does an incoming req see
system.mem_ctrls.wrQLenPdf::34                      0                       # What write queue length does an incoming req see
system.mem_ctrls.wrQLenPdf::35                      0                       # What write queue length does an incoming req see
system.mem_ctrls.wrQLenPdf::36                      0                       # What write queue length does an incoming req see
system.mem_ctrls.wrQLenPdf::37                      0                       # What write queue length does an incoming req see
system.mem_ctrls.wrQLenPdf::38                      0                       # What write queue length does an incoming req see
system.mem_ctrls.wrQLenPdf::39                      0                       # What write queue length does an incoming req see
system.mem_ctrls.wrQLenPdf::40                      0                       # What write queue length does an incoming req see
system.mem_ctrls.wrQLenPdf::41                      0                       # What write queue length does an incoming req see
system.mem_ctrls.wrQLenPdf::42                      0                       # What write queue length does an incoming req see
system.mem_ctrls.wrQLenPdf::43                      0                       # What write queue length does an incoming req see
system.mem_ctrls.wrQLenPdf::44                      0                       # What write queue length does an incoming req see
system.mem_ctrls.wrQLenPdf::45                      0                       # What write queue length does an incoming req see
system.mem_ctrls.wrQLenPdf::46                      0                       # What write queue length does an incoming req see
system.mem_ctrls.wrQLenPdf::47                      0                       # What write queue length does an incoming req see
system.mem_ctrls.wrQLenPdf::48                      0                       # What write queue length does an incoming req see
system.mem_ctrls.wrQLenPdf::49                      0                       # What write queue length does an incoming req see
system.mem_ctrls.wrQLenPdf::50                      0                       # What write queue length does an incoming req see
system.mem_ctrls.wrQLenPdf::51                      0                       # What write queue length does an incoming req see
system.mem_ctrls.wrQLenPdf::52                      0                       # What write queue length does an incoming req see
system.mem_ctrls.wrQLenPdf::53                      0                       # What write queue length does an incoming req see
system.mem_ctrls.wrQLenPdf::54                      0                       # What write queue length does an incoming req see
system.mem_ctrls.wrQLenPdf::55                      0                       # What write queue length does an incoming req see
system.mem_ctrls.wrQLenPdf::56                      0                       # What write queue length does an incoming req see
system.mem_ctrls.wrQLenPdf::57                      0                       # What write queue length does an incoming req see
system.mem_ctrls.wrQLenPdf::58                      0                       # What write queue length does an incoming req see
system.mem_ctrls.wrQLenPdf::59                      0                       # What write queue length does an incoming req see
system.mem_ctrls.wrQLenPdf::60                      0                       # What write queue length does an incoming req see
system.mem_ctrls.wrQLenPdf::61                      0                       # What write queue length does an incoming req see
system.mem_ctrls.wrQLenPdf::62                      0                       # What write queue length does an incoming req see
system.mem_ctrls.wrQLenPdf::63                      0                       # What write queue length does an incoming req see
system.mem_ctrls.bytesPerActivate::samples          241                       # Bytes accessed per row activation
system.mem_ctrls.bytesPerActivate::mean    312.033195                       # Bytes accessed per row activation
system.mem_ctrls.bytesPerActivate::gmean   182.983745                       # Bytes accessed per row activation
system.mem_ctrls.bytesPerActivate::stdev   327.961378                       # Bytes accessed per row activation
system.mem_ctrls.bytesPerActivate::0-127           93     38.59%     38.59% # Bytes accessed per row activation
system.mem_ctrls.bytesPerActivate::128-255           52     21.58%     60.17% # Bytes accessed per row activation
system.mem_ctrls.bytesPerActivate::256-383           23      9.54%     69.71% # Bytes accessed per row activation
system.mem_ctrls.bytesPerActivate::384-511           18      7.47%     77.18% # Bytes accessed per row activation
system.mem_ctrls.bytesPerActivate::512-639           11      4.56%     81.74% # Bytes accessed per row activation
system.mem_ctrls.bytesPerActivate::640-767            7      2.90%     84.65% # Bytes accessed per row activation
system.mem_ctrls.bytesPerActivate::768-895            5      2.07%     86.72% # Bytes accessed per row activation
system.mem_ctrls.bytesPerActivate::896-1023            5      2.07%     88.80% # Bytes accessed per row activation
system.mem_ctrls.bytesPerActivate::1024-1151           27     11.20%    100.00% # Bytes accessed per row activation
system.mem_ctrls.bytesPerActivate::total          241                       # Bytes accessed per row activation
system.mem_ctrls.totQLat                     11983750                       # Total ticks spent queuing
system.mem_ctrls.totMemAccLat                34783750                       # Total ticks spent from burst creation until serviced by the DRAM
system.mem_ctrls.totBusLat                    6080000                       # Total ticks spent in databus transfers
system.mem_ctrls.avgQLat                      9855.06                       # Average queueing delay per DRAM burst
system.mem_ctrls.avgBusLat                    5000.00                       # Average bus latency per DRAM burst
system.mem_ctrls.avgMemAccLat                28605.06                       # Average memory access latency per DRAM burst
system.mem_ctrls.avgRdBW                      1445.16                       # Average DRAM read bandwidth in MiByte/s
system.mem_ctrls.avgWrBW                         0.00                       # Average achieved write bandwidth in MiByte/s
system.mem_ctrls.avgRdBWSys                   1460.61                       # Average system read bandwidth in MiByte/s
system.mem_ctrls.avgWrBWSys                     15.45                       # Average system write bandwidth in MiByte/s
system.mem_ctrls.peakBW                      12800.00                       # Theoretical peak bandwidth in MiByte/s
system.mem_ctrls.busUtil                        11.29                       # Data bus utilization in percentage
system.mem_ctrls.busUtilRead                    11.29                       # Data bus utilization in percentage for reads
system.mem_ctrls.busUtilWrite                    0.00                       # Data bus utilization in percentage for writes
system.mem_ctrls.avgRdQLen                       1.61                       # Average read queue length when enqueuing
system.mem_ctrls.avgWrQLen                       3.11                       # Average write queue length when enqueuing
system.mem_ctrls.readRowHits                      964                       # Number of row buffer hits during reads
system.mem_ctrls.writeRowHits                       0                       # Number of row buffer hits during writes
system.mem_ctrls.readRowHitRate                 79.28                       # Row buffer hit rate for reads
system.mem_ctrls.writeRowHitRate                 0.00                       # Row buffer hit rate for writes
system.mem_ctrls.avgGap                      43356.68                       # Average gap between requests
system.mem_ctrls.pageHitRate                    78.57                       # Row buffer hit rate, read and write combined
system.mem_ctrls_0.actEnergy                  1451520                       # Energy for activate commands per rank (pJ)
system.mem_ctrls_0.preEnergy                   792000                       # Energy for precharge commands per rank (pJ)
system.mem_ctrls_0.readEnergy                 7300800                       # Energy for read commands per rank (pJ)
system.mem_ctrls_0.writeEnergy                      0                       # Energy for write commands per rank (pJ)
system.mem_ctrls_0.refreshEnergy              3051360                       # Energy for refresh commands per rank (pJ)
system.mem_ctrls_0.actBackEnergy             31589685                       # Energy for active background per rank (pJ)
system.mem_ctrls_0.preBackEnergy               476250                       # Energy for precharge background per rank (pJ)
system.mem_ctrls_0.totalEnergy               44661615                       # Total energy per rank (pJ)
system.mem_ctrls_0.averagePower            950.702251                       # Core power per rank (mW)
system.mem_ctrls_0.memoryStateTime::IDLE      1269250                       # Time in different power states
system.mem_ctrls_0.memoryStateTime::REF       1560000                       # Time in different power states
system.mem_ctrls_0.memoryStateTime::PRE_PDN            0                       # Time in different power states
system.mem_ctrls_0.memoryStateTime::ACT      44831250                       # Time in different power states
system.mem_ctrls_0.memoryStateTime::ACT_PDN            0                       # Time in different power states
system.mem_ctrls_1.actEnergy                   226800                       # Energy for activate commands per rank (pJ)
system.mem_ctrls_1.preEnergy                   123750                       # Energy for precharge commands per rank (pJ)
system.mem_ctrls_1.readEnergy                 1123200                       # Energy for read commands per rank (pJ)
system.mem_ctrls_1.writeEnergy                      0                       # Energy for write commands per rank (pJ)
system.mem_ctrls_1.refreshEnergy              3051360                       # Energy for refresh commands per rank (pJ)
system.mem_ctrls_1.actBackEnergy             25634610                       # Energy for active background per rank (pJ)
system.mem_ctrls_1.preBackEnergy              5700000                       # Energy for precharge background per rank (pJ)
system.mem_ctrls_1.totalEnergy               35859720                       # Total energy per rank (pJ)
system.mem_ctrls_1.averagePower            763.338194                       # Core power per rank (mW)
system.mem_ctrls_1.memoryStateTime::IDLE     12886750                       # Time in different power states
system.mem_ctrls_1.memoryStateTime::REF       1560000                       # Time in different power states
system.mem_ctrls_1.memoryStateTime::PRE_PDN            0                       # Time in different power states
system.mem_ctrls_1.memoryStateTime::ACT      36084000                       # Time in different power states
system.mem_ctrls_1.memoryStateTime::ACT_PDN            0                       # Time in different power states
system.cpu0.branchPred.lookups                   9506                       # Number of BP lookups
system.cpu0.branchPred.condPredicted             7227                       # Number of conditional branches predicted
system.cpu0.branchPred.condIncorrect             1380                       # Number of conditional branches incorrect
system.cpu0.branchPred.BTBLookups                4146                       # Number of BTB lookups
system.cpu0.branchPred.BTBHits                   3364                       # Number of BTB hits
system.cpu0.branchPred.BTBCorrect                   0                       # Number of correct BTB predictions (this stat may not work properly.
system.cpu0.branchPred.BTBHitPct            81.138447                       # BTB Hit Percentage
system.cpu0.branchPred.usedRAS                    747                       # Number of times the RAS was used to get a target.
system.cpu0.branchPred.RASInCorrect                 7                       # Number of incorrect RAS predictions.
system.cpu_voltage_domain.voltage                   1                       # Voltage in Volts
system.cpu_clk_domain.clock                       500                       # Clock period in ticks
system.cpu0.dstage2_mmu.stage2_tlb.walker.walks            0                       # Table walker walks requested
system.cpu0.dstage2_mmu.stage2_tlb.walker.walkRequestOrigin_Requested::Data            0                       # Table walker requests started/completed, data/inst
system.cpu0.dstage2_mmu.stage2_tlb.walker.walkRequestOrigin_Requested::Inst            0                       # Table walker requests started/completed, data/inst
system.cpu0.dstage2_mmu.stage2_tlb.walker.walkRequestOrigin_Requested::total            0                       # Table walker requests started/completed, data/inst
system.cpu0.dstage2_mmu.stage2_tlb.walker.walkRequestOrigin_Completed::Data            0                       # Table walker requests started/completed, data/inst
system.cpu0.dstage2_mmu.stage2_tlb.walker.walkRequestOrigin_Completed::Inst            0                       # Table walker requests started/completed, data/inst
system.cpu0.dstage2_mmu.stage2_tlb.walker.walkRequestOrigin_Completed::total            0                       # Table walker requests started/completed, data/inst
system.cpu0.dstage2_mmu.stage2_tlb.walker.walkRequestOrigin::total            0                       # Table walker requests started/completed, data/inst
system.cpu0.dstage2_mmu.stage2_tlb.inst_hits            0                       # ITB inst hits
system.cpu0.dstage2_mmu.stage2_tlb.inst_misses            0                       # ITB inst misses
system.cpu0.dstage2_mmu.stage2_tlb.read_hits            0                       # DTB read hits
system.cpu0.dstage2_mmu.stage2_tlb.read_misses            0                       # DTB read misses
system.cpu0.dstage2_mmu.stage2_tlb.write_hits            0                       # DTB write hits
system.cpu0.dstage2_mmu.stage2_tlb.write_misses            0                       # DTB write misses
system.cpu0.dstage2_mmu.stage2_tlb.flush_tlb            0                       # Number of times complete TLB was flushed
system.cpu0.dstage2_mmu.stage2_tlb.flush_tlb_mva            0                       # Number of times TLB was flushed by MVA
system.cpu0.dstage2_mmu.stage2_tlb.flush_tlb_mva_asid            0                       # Number of times TLB was flushed by MVA & ASID
system.cpu0.dstage2_mmu.stage2_tlb.flush_tlb_asid            0                       # Number of times TLB was flushed by ASID
system.cpu0.dstage2_mmu.stage2_tlb.flush_entries            0                       # Number of entries that have been flushed from TLB
system.cpu0.dstage2_mmu.stage2_tlb.align_faults            0                       # Number of TLB faults due to alignment restrictions
system.cpu0.dstage2_mmu.stage2_tlb.prefetch_faults            0                       # Number of TLB faults due to prefetch
system.cpu0.dstage2_mmu.stage2_tlb.domain_faults            0                       # Number of TLB faults due to domain restrictions
system.cpu0.dstage2_mmu.stage2_tlb.perms_faults            0                       # Number of TLB faults due to permissions restrictions
system.cpu0.dstage2_mmu.stage2_tlb.read_accesses            0                       # DTB read accesses
system.cpu0.dstage2_mmu.stage2_tlb.write_accesses            0                       # DTB write accesses
system.cpu0.dstage2_mmu.stage2_tlb.inst_accesses            0                       # ITB inst accesses
system.cpu0.dstage2_mmu.stage2_tlb.hits             0                       # DTB hits
system.cpu0.dstage2_mmu.stage2_tlb.misses            0                       # DTB misses
system.cpu0.dstage2_mmu.stage2_tlb.accesses            0                       # DTB accesses
system.cpu0.dtb.walker.walks                        0                       # Table walker walks requested
system.cpu0.dtb.walker.walkRequestOrigin_Requested::Data            0                       # Table walker requests started/completed, data/inst
system.cpu0.dtb.walker.walkRequestOrigin_Requested::Inst            0                       # Table walker requests started/completed, data/inst
system.cpu0.dtb.walker.walkRequestOrigin_Requested::total            0                       # Table walker requests started/completed, data/inst
system.cpu0.dtb.walker.walkRequestOrigin_Completed::Data            0                       # Table walker requests started/completed, data/inst
system.cpu0.dtb.walker.walkRequestOrigin_Completed::Inst            0                       # Table walker requests started/completed, data/inst
system.cpu0.dtb.walker.walkRequestOrigin_Completed::total            0                       # Table walker requests started/completed, data/inst
system.cpu0.dtb.walker.walkRequestOrigin::total            0                       # Table walker requests started/completed, data/inst
system.cpu0.dtb.inst_hits                           0                       # ITB inst hits
system.cpu0.dtb.inst_misses                         0                       # ITB inst misses
system.cpu0.dtb.read_hits                           0                       # DTB read hits
system.cpu0.dtb.read_misses                         0                       # DTB read misses
system.cpu0.dtb.write_hits                          0                       # DTB write hits
system.cpu0.dtb.write_misses                        0                       # DTB write misses
system.cpu0.dtb.flush_tlb                           0                       # Number of times complete TLB was flushed
system.cpu0.dtb.flush_tlb_mva                       0                       # Number of times TLB was flushed by MVA
system.cpu0.dtb.flush_tlb_mva_asid                  0                       # Number of times TLB was flushed by MVA & ASID
system.cpu0.dtb.flush_tlb_asid                      0                       # Number of times TLB was flushed by ASID
system.cpu0.dtb.flush_entries                       0                       # Number of entries that have been flushed from TLB
system.cpu0.dtb.align_faults                        0                       # Number of TLB faults due to alignment restrictions
system.cpu0.dtb.prefetch_faults                     0                       # Number of TLB faults due to prefetch
system.cpu0.dtb.domain_faults                       0                       # Number of TLB faults due to domain restrictions
system.cpu0.dtb.perms_faults                        0                       # Number of TLB faults due to permissions restrictions
system.cpu0.dtb.read_accesses                       0                       # DTB read accesses
system.cpu0.dtb.write_accesses                      0                       # DTB write accesses
system.cpu0.dtb.inst_accesses                       0                       # ITB inst accesses
system.cpu0.dtb.hits                                0                       # DTB hits
system.cpu0.dtb.misses                              0                       # DTB misses
system.cpu0.dtb.accesses                            0                       # DTB accesses
system.cpu0.istage2_mmu.stage2_tlb.walker.walks            0                       # Table walker walks requested
system.cpu0.istage2_mmu.stage2_tlb.walker.walkRequestOrigin_Requested::Data            0                       # Table walker requests started/completed, data/inst
system.cpu0.istage2_mmu.stage2_tlb.walker.walkRequestOrigin_Requested::Inst            0                       # Table walker requests started/completed, data/inst
system.cpu0.istage2_mmu.stage2_tlb.walker.walkRequestOrigin_Requested::total            0                       # Table walker requests started/completed, data/inst
system.cpu0.istage2_mmu.stage2_tlb.walker.walkRequestOrigin_Completed::Data            0                       # Table walker requests started/completed, data/inst
system.cpu0.istage2_mmu.stage2_tlb.walker.walkRequestOrigin_Completed::Inst            0                       # Table walker requests started/completed, data/inst
system.cpu0.istage2_mmu.stage2_tlb.walker.walkRequestOrigin_Completed::total            0                       # Table walker requests started/completed, data/inst
system.cpu0.istage2_mmu.stage2_tlb.walker.walkRequestOrigin::total            0                       # Table walker requests started/completed, data/inst
system.cpu0.istage2_mmu.stage2_tlb.inst_hits            0                       # ITB inst hits
system.cpu0.istage2_mmu.stage2_tlb.inst_misses            0                       # ITB inst misses
system.cpu0.istage2_mmu.stage2_tlb.read_hits            0                       # DTB read hits
system.cpu0.istage2_mmu.stage2_tlb.read_misses            0                       # DTB read misses
system.cpu0.istage2_mmu.stage2_tlb.write_hits            0                       # DTB write hits
system.cpu0.istage2_mmu.stage2_tlb.write_misses            0                       # DTB write misses
system.cpu0.istage2_mmu.stage2_tlb.flush_tlb            0                       # Number of times complete TLB was flushed
system.cpu0.istage2_mmu.stage2_tlb.flush_tlb_mva            0                       # Number of times TLB was flushed by MVA
system.cpu0.istage2_mmu.stage2_tlb.flush_tlb_mva_asid            0                       # Number of times TLB was flushed by MVA & ASID
system.cpu0.istage2_mmu.stage2_tlb.flush_tlb_asid            0                       # Number of times TLB was flushed by ASID
system.cpu0.istage2_mmu.stage2_tlb.flush_entries            0                       # Number of entries that have been flushed from TLB
system.cpu0.istage2_mmu.stage2_tlb.align_faults            0                       # Number of TLB faults due to alignment restrictions
system.cpu0.istage2_mmu.stage2_tlb.prefetch_faults            0                       # Number of TLB faults due to prefetch
system.cpu0.istage2_mmu.stage2_tlb.domain_faults            0                       # Number of TLB faults due to domain restrictions
system.cpu0.istage2_mmu.stage2_tlb.perms_faults            0                       # Number of TLB faults due to permissions restrictions
system.cpu0.istage2_mmu.stage2_tlb.read_accesses            0                       # DTB read accesses
system.cpu0.istage2_mmu.stage2_tlb.write_accesses            0                       # DTB write accesses
system.cpu0.istage2_mmu.stage2_tlb.inst_accesses            0                       # ITB inst accesses
system.cpu0.istage2_mmu.stage2_tlb.hits             0                       # DTB hits
system.cpu0.istage2_mmu.stage2_tlb.misses            0                       # DTB misses
system.cpu0.istage2_mmu.stage2_tlb.accesses            0                       # DTB accesses
system.cpu0.itb.walker.walks                        0                       # Table walker walks requested
system.cpu0.itb.walker.walkRequestOrigin_Requested::Data            0                       # Table walker requests started/completed, data/inst
system.cpu0.itb.walker.walkRequestOrigin_Requested::Inst            0                       # Table walker requests started/completed, data/inst
system.cpu0.itb.walker.walkRequestOrigin_Requested::total            0                       # Table walker requests started/completed, data/inst
system.cpu0.itb.walker.walkRequestOrigin_Completed::Data            0                       # Table walker requests started/completed, data/inst
system.cpu0.itb.walker.walkRequestOrigin_Completed::Inst            0                       # Table walker requests started/completed, data/inst
system.cpu0.itb.walker.walkRequestOrigin_Completed::total            0                       # Table walker requests started/completed, data/inst
system.cpu0.itb.walker.walkRequestOrigin::total            0                       # Table walker requests started/completed, data/inst
system.cpu0.itb.inst_hits                           0                       # ITB inst hits
system.cpu0.itb.inst_misses                         0                       # ITB inst misses
system.cpu0.itb.read_hits                           0                       # DTB read hits
system.cpu0.itb.read_misses                         0                       # DTB read misses
system.cpu0.itb.write_hits                          0                       # DTB write hits
system.cpu0.itb.write_misses                        0                       # DTB write misses
system.cpu0.itb.flush_tlb                           0                       # Number of times complete TLB was flushed
system.cpu0.itb.flush_tlb_mva                       0                       # Number of times TLB was flushed by MVA
system.cpu0.itb.flush_tlb_mva_asid                  0                       # Number of times TLB was flushed by MVA & ASID
system.cpu0.itb.flush_tlb_asid                      0                       # Number of times TLB was flushed by ASID
system.cpu0.itb.flush_entries                       0                       # Number of entries that have been flushed from TLB
system.cpu0.itb.align_faults                        0                       # Number of TLB faults due to alignment restrictions
system.cpu0.itb.prefetch_faults                     0                       # Number of TLB faults due to prefetch
system.cpu0.itb.domain_faults                       0                       # Number of TLB faults due to domain restrictions
system.cpu0.itb.perms_faults                        0                       # Number of TLB faults due to permissions restrictions
system.cpu0.itb.read_accesses                       0                       # DTB read accesses
system.cpu0.itb.write_accesses                      0                       # DTB write accesses
system.cpu0.itb.inst_accesses                       0                       # ITB inst accesses
system.cpu0.itb.hits                                0                       # DTB hits
system.cpu0.itb.misses                              0                       # DTB misses
system.cpu0.itb.accesses                            0                       # DTB accesses
system.cpu0.workload.num_syscalls                  62                       # Number of system calls
system.cpu0.numCycles                          107704                       # number of cpu cycles simulated
system.cpu0.numWorkItemsStarted                     0                       # number of work items this cpu started
system.cpu0.numWorkItemsCompleted                   0                       # number of work items this cpu completed
system.cpu0.fetch.icacheStallCycles             15267                       # Number of cycles fetch is stalled on an Icache miss
system.cpu0.fetch.Insts                         62305                       # Number of instructions fetch has processed
system.cpu0.fetch.Branches                       9506                       # Number of branches that fetch encountered
system.cpu0.fetch.predictedBranches              4111                       # Number of branches that fetch has predicted taken
system.cpu0.fetch.Cycles                        52848                       # Number of cycles fetch has run and was not squashing or blocked
system.cpu0.fetch.SquashCycles                   2827                       # Number of cycles fetch has spent squashing
system.cpu0.fetch.MiscStallCycles                 256                       # Number of cycles fetch has spent waiting on interrupts, or bad addresses, or out of MSHRs
system.cpu0.fetch.PendingTrapStallCycles          108                       # Number of stall cycles due to pending traps
system.cpu0.fetch.IcacheWaitRetryStallCycles          430                       # Number of stall cycles due to full MSHR
system.cpu0.fetch.CacheLines                    19155                       # Number of cache lines fetched
system.cpu0.fetch.IcacheSquashes                  360                       # Number of outstanding Icache misses that were squashed
system.cpu0.fetch.rateDist::samples             70322                       # Number of instructions fetched each cycle (Total)
system.cpu0.fetch.rateDist::mean             1.017818                       # Number of instructions fetched each cycle (Total)
system.cpu0.fetch.rateDist::stdev            1.260367                       # Number of instructions fetched each cycle (Total)
system.cpu0.fetch.rateDist::underflows              0      0.00%      0.00% # Number of instructions fetched each cycle (Total)
system.cpu0.fetch.rateDist::0                   37358     53.12%     53.12% # Number of instructions fetched each cycle (Total)
system.cpu0.fetch.rateDist::1                   12233     17.40%     70.52% # Number of instructions fetched each cycle (Total)
system.cpu0.fetch.rateDist::2                    2851      4.05%     74.57% # Number of instructions fetched each cycle (Total)
system.cpu0.fetch.rateDist::3                   17880     25.43%    100.00% # Number of instructions fetched each cycle (Total)
system.cpu0.fetch.rateDist::overflows               0      0.00%    100.00% # Number of instructions fetched each cycle (Total)
system.cpu0.fetch.rateDist::min_value               0                       # Number of instructions fetched each cycle (Total)
system.cpu0.fetch.rateDist::max_value               3                       # Number of instructions fetched each cycle (Total)
system.cpu0.fetch.rateDist::total               70322                       # Number of instructions fetched each cycle (Total)
system.cpu0.fetch.branchRate                 0.088260                       # Number of branch fetches per cycle
system.cpu0.fetch.rate                       0.578484                       # Number of inst fetches per cycle
system.cpu0.decode.IdleCycles                   13920                       # Number of cycles decode is idle
system.cpu0.decode.BlockedCycles                25932                       # Number of cycles decode is blocked
system.cpu0.decode.RunCycles                    28392                       # Number of cycles decode is running
system.cpu0.decode.UnblockCycles                  986                       # Number of cycles decode is unblocking
system.cpu0.decode.SquashCycles                  1092                       # Number of cycles decode is squashing
system.cpu0.decode.BranchResolved                 905                       # Number of times decode resolved a branch
system.cpu0.decode.BranchMispred                  345                       # Number of times decode detected a branch misprediction
system.cpu0.decode.DecodedInsts                 61388                       # Number of instructions handled by decode
system.cpu0.decode.SquashedInsts                 4832                       # Number of squashed instructions handled by decode
system.cpu0.rename.SquashCycles                  1092                       # Number of cycles rename is squashing
system.cpu0.rename.IdleCycles                   17608                       # Number of cycles rename is idle
system.cpu0.rename.BlockCycles                   3130                       # Number of cycles rename is blocking
system.cpu0.rename.serializeStallCycles          6190                       # count of cycles rename stalled for serializing inst
system.cpu0.rename.RunCycles                    25654                       # Number of cycles rename is running
system.cpu0.rename.UnblockCycles                16648                       # Number of cycles rename is unblocking
system.cpu0.rename.RenamedInsts                 57624                       # Number of instructions processed by rename
system.cpu0.rename.SquashedInsts                 1762                       # Number of squashed instructions processed by rename
system.cpu0.rename.ROBFullEvents                   87                       # Number of times rename has blocked due to ROB full
system.cpu0.rename.IQFullEvents                    11                       # Number of times rename has blocked due to IQ full
system.cpu0.rename.LQFullEvents                     1                       # Number of times rename has blocked due to LQ full
system.cpu0.rename.SQFullEvents                 16060                       # Number of times rename has blocked due to SQ full
system.cpu0.rename.RenamedOperands              66843                       # Number of destination operands rename has renamed
system.cpu0.rename.RenameLookups               278074                       # Number of register rename lookups that rename has made
system.cpu0.rename.int_rename_lookups           80734                       # Number of integer rename lookups
system.cpu0.rename.fp_rename_lookups               22                       # Number of floating rename lookups
system.cpu0.rename.CommittedMaps                54963                       # Number of HB maps that are committed
system.cpu0.rename.UndoneMaps                   11880                       # Number of HB maps that are undone due to squashing
system.cpu0.rename.serializingInsts               105                       # count of serializing insts renamed
system.cpu0.rename.tempSerializingInsts           103                       # count of temporary serializing insts renamed
system.cpu0.rename.skidInsts                     2407                       # count of insts added to the skid buffer
system.cpu0.memDep0.insertedLoads                9783                       # Number of loads inserted to the mem dependence unit.
system.cpu0.memDep0.insertedStores               7540                       # Number of stores inserted to the mem dependence unit.
system.cpu0.memDep0.conflictingLoads              233                       # Number of conflicting loads.
system.cpu0.memDep0.conflictingStores             103                       # Number of conflicting stores.
system.cpu0.iq.iqInstsAdded                     55698                       # Number of instructions added to the IQ (excludes non-spec)
system.cpu0.iq.iqNonSpecInstsAdded                239                       # Number of non-speculative instructions added to the IQ
system.cpu0.iq.iqInstsIssued                    52446                       # Number of instructions issued
system.cpu0.iq.iqSquashedInstsIssued              481                       # Number of squashed instructions issued
system.cpu0.iq.iqSquashedInstsExamined           9219                       # Number of squashed instructions iterated over during squash; mainly for profiling
system.cpu0.iq.iqSquashedOperandsExamined        23159                       # Number of squashed operands that are examined and possibly removed from graph
system.cpu0.iq.iqSquashedNonSpecRemoved            47                       # Number of squashed non-spec instructions that were removed
system.cpu0.iq.issued_per_cycle::samples        70322                       # Number of insts issued each cycle
system.cpu0.iq.issued_per_cycle::mean        0.745798                       # Number of insts issued each cycle
system.cpu0.iq.issued_per_cycle::stdev       1.099402                       # Number of insts issued each cycle
system.cpu0.iq.issued_per_cycle::underflows            0      0.00%      0.00% # Number of insts issued each cycle
system.cpu0.iq.issued_per_cycle::0              44100     62.71%     62.71% # Number of insts issued each cycle
system.cpu0.iq.issued_per_cycle::1               9006     12.81%     75.52% # Number of insts issued each cycle
system.cpu0.iq.issued_per_cycle::2               8805     12.52%     88.04% # Number of insts issued each cycle
system.cpu0.iq.issued_per_cycle::3               7817     11.12%     99.16% # Number of insts issued each cycle
system.cpu0.iq.issued_per_cycle::4                591      0.84%    100.00% # Number of insts issued each cycle
system.cpu0.iq.issued_per_cycle::5                  3      0.00%    100.00% # Number of insts issued each cycle
system.cpu0.iq.issued_per_cycle::6                  0      0.00%    100.00% # Number of insts issued each cycle
system.cpu0.iq.issued_per_cycle::7                  0      0.00%    100.00% # Number of insts issued each cycle
system.cpu0.iq.issued_per_cycle::8                  0      0.00%    100.00% # Number of insts issued each cycle
system.cpu0.iq.issued_per_cycle::overflows            0      0.00%    100.00% # Number of insts issued each cycle
system.cpu0.iq.issued_per_cycle::min_value            0                       # Number of insts issued each cycle
system.cpu0.iq.issued_per_cycle::max_value            5                       # Number of insts issued each cycle
system.cpu0.iq.issued_per_cycle::total          70322                       # Number of insts issued each cycle
system.cpu0.iq.fu_full::No_OpClass                  0      0.00%      0.00% # attempts to use FU when none available
system.cpu0.iq.fu_full::IntAlu                   2562     26.92%     26.92% # attempts to use FU when none available
system.cpu0.iq.fu_full::IntMult                   117      1.23%     28.15% # attempts to use FU when none available
system.cpu0.iq.fu_full::IntDiv                      0      0.00%     28.15% # attempts to use FU when none available
system.cpu0.iq.fu_full::FloatAdd                    0      0.00%     28.15% # attempts to use FU when none available
system.cpu0.iq.fu_full::FloatCmp                    0      0.00%     28.15% # attempts to use FU when none available
system.cpu0.iq.fu_full::FloatCvt                    0      0.00%     28.15% # attempts to use FU when none available
system.cpu0.iq.fu_full::FloatMult                   0      0.00%     28.15% # attempts to use FU when none available
system.cpu0.iq.fu_full::FloatDiv                    0      0.00%     28.15% # attempts to use FU when none available
system.cpu0.iq.fu_full::FloatSqrt                   0      0.00%     28.15% # attempts to use FU when none available
system.cpu0.iq.fu_full::SimdAdd                     0      0.00%     28.15% # attempts to use FU when none available
system.cpu0.iq.fu_full::SimdAddAcc                  0      0.00%     28.15% # attempts to use FU when none available
system.cpu0.iq.fu_full::SimdAlu                     0      0.00%     28.15% # attempts to use FU when none available
system.cpu0.iq.fu_full::SimdCmp                     0      0.00%     28.15% # attempts to use FU when none available
system.cpu0.iq.fu_full::SimdCvt                     0      0.00%     28.15% # attempts to use FU when none available
system.cpu0.iq.fu_full::SimdMisc                    0      0.00%     28.15% # attempts to use FU when none available
system.cpu0.iq.fu_full::SimdMult                    0      0.00%     28.15% # attempts to use FU when none available
system.cpu0.iq.fu_full::SimdMultAcc                 0      0.00%     28.15% # attempts to use FU when none available
system.cpu0.iq.fu_full::SimdShift                   0      0.00%     28.15% # attempts to use FU when none available
system.cpu0.iq.fu_full::SimdShiftAcc                0      0.00%     28.15% # attempts to use FU when none available
system.cpu0.iq.fu_full::SimdSqrt                    0      0.00%     28.15% # attempts to use FU when none available
system.cpu0.iq.fu_full::SimdFloatAdd                0      0.00%     28.15% # attempts to use FU when none available
system.cpu0.iq.fu_full::SimdFloatAlu                0      0.00%     28.15% # attempts to use FU when none available
system.cpu0.iq.fu_full::SimdFloatCmp                0      0.00%     28.15% # attempts to use FU when none available
system.cpu0.iq.fu_full::SimdFloatCvt                0      0.00%     28.15% # attempts to use FU when none available
system.cpu0.iq.fu_full::SimdFloatDiv                0      0.00%     28.15% # attempts to use FU when none available
system.cpu0.iq.fu_full::SimdFloatMisc               0      0.00%     28.15% # attempts to use FU when none available
system.cpu0.iq.fu_full::SimdFloatMult               0      0.00%     28.15% # attempts to use FU when none available
system.cpu0.iq.fu_full::SimdFloatMultAcc            0      0.00%     28.15% # attempts to use FU when none available
system.cpu0.iq.fu_full::SimdFloatSqrt               0      0.00%     28.15% # attempts to use FU when none available
system.cpu0.iq.fu_full::MemRead                  3497     36.75%     64.90% # attempts to use FU when none available
system.cpu0.iq.fu_full::MemWrite                 3340     35.10%    100.00% # attempts to use FU when none available
system.cpu0.iq.fu_full::IprAccess                   0      0.00%    100.00% # attempts to use FU when none available
system.cpu0.iq.fu_full::InstPrefetch                0      0.00%    100.00% # attempts to use FU when none available
system.cpu0.iq.FU_type_0::No_OpClass                0      0.00%      0.00% # Type of FU issued
system.cpu0.iq.FU_type_0::IntAlu                32442     61.86%     61.86% # Type of FU issued
system.cpu0.iq.FU_type_0::IntMult                3645      6.95%     68.81% # Type of FU issued
system.cpu0.iq.FU_type_0::IntDiv                    0      0.00%     68.81% # Type of FU issued
system.cpu0.iq.FU_type_0::FloatAdd                  0      0.00%     68.81% # Type of FU issued
system.cpu0.iq.FU_type_0::FloatCmp                  0      0.00%     68.81% # Type of FU issued
system.cpu0.iq.FU_type_0::FloatCvt                  0      0.00%     68.81% # Type of FU issued
system.cpu0.iq.FU_type_0::FloatMult                 0      0.00%     68.81% # Type of FU issued
system.cpu0.iq.FU_type_0::FloatDiv                  0      0.00%     68.81% # Type of FU issued
system.cpu0.iq.FU_type_0::FloatSqrt                 0      0.00%     68.81% # Type of FU issued
system.cpu0.iq.FU_type_0::SimdAdd                   0      0.00%     68.81% # Type of FU issued
system.cpu0.iq.FU_type_0::SimdAddAcc                0      0.00%     68.81% # Type of FU issued
system.cpu0.iq.FU_type_0::SimdAlu                   0      0.00%     68.81% # Type of FU issued
system.cpu0.iq.FU_type_0::SimdCmp                   0      0.00%     68.81% # Type of FU issued
system.cpu0.iq.FU_type_0::SimdCvt                   0      0.00%     68.81% # Type of FU issued
system.cpu0.iq.FU_type_0::SimdMisc                  0      0.00%     68.81% # Type of FU issued
system.cpu0.iq.FU_type_0::SimdMult                  0      0.00%     68.81% # Type of FU issued
system.cpu0.iq.FU_type_0::SimdMultAcc               0      0.00%     68.81% # Type of FU issued
system.cpu0.iq.FU_type_0::SimdShift                 0      0.00%     68.81% # Type of FU issued
system.cpu0.iq.FU_type_0::SimdShiftAcc              0      0.00%     68.81% # Type of FU issued
system.cpu0.iq.FU_type_0::SimdSqrt                  0      0.00%     68.81% # Type of FU issued
system.cpu0.iq.FU_type_0::SimdFloatAdd              0      0.00%     68.81% # Type of FU issued
system.cpu0.iq.FU_type_0::SimdFloatAlu              0      0.00%     68.81% # Type of FU issued
system.cpu0.iq.FU_type_0::SimdFloatCmp              0      0.00%     68.81% # Type of FU issued
system.cpu0.iq.FU_type_0::SimdFloatCvt              0      0.00%     68.81% # Type of FU issued
system.cpu0.iq.FU_type_0::SimdFloatDiv              0      0.00%     68.81% # Type of FU issued
system.cpu0.iq.FU_type_0::SimdFloatMisc             3      0.01%     68.81% # Type of FU issued
system.cpu0.iq.FU_type_0::SimdFloatMult             0      0.00%     68.81% # Type of FU issued
system.cpu0.iq.FU_type_0::SimdFloatMultAcc            0      0.00%     68.81% # Type of FU issued
system.cpu0.iq.FU_type_0::SimdFloatSqrt             0      0.00%     68.81% # Type of FU issued
system.cpu0.iq.FU_type_0::MemRead                9340     17.81%     86.62% # Type of FU issued
system.cpu0.iq.FU_type_0::MemWrite               7016     13.38%    100.00% # Type of FU issued
system.cpu0.iq.FU_type_0::IprAccess                 0      0.00%    100.00% # Type of FU issued
system.cpu0.iq.FU_type_0::InstPrefetch              0      0.00%    100.00% # Type of FU issued
system.cpu0.iq.FU_type_0::total                 52446                       # Type of FU issued
system.cpu0.iq.rate                          0.486946                       # Inst issue rate
system.cpu0.iq.fu_busy_cnt                       9516                       # FU busy when requested
system.cpu0.iq.fu_busy_rate                  0.181444                       # FU busy rate (busy events/executed inst)
system.cpu0.iq.int_inst_queue_reads            185135                       # Number of integer instruction queue reads
system.cpu0.iq.int_inst_queue_writes            65144                       # Number of integer instruction queue writes
system.cpu0.iq.int_inst_queue_wakeup_accesses        50124                       # Number of integer instruction queue wakeup accesses
system.cpu0.iq.fp_inst_queue_reads                 76                       # Number of floating instruction queue reads
system.cpu0.iq.fp_inst_queue_writes                28                       # Number of floating instruction queue writes
system.cpu0.iq.fp_inst_queue_wakeup_accesses           28                       # Number of floating instruction queue wakeup accesses
system.cpu0.iq.int_alu_accesses                 61914                       # Number of integer alu accesses
system.cpu0.iq.fp_alu_accesses                     48                       # Number of floating point alu accesses
system.cpu0.iew.lsq.thread0.forwLoads              51                       # Number of loads that had data forwarded from stores
system.cpu0.iew.lsq.thread0.invAddrLoads            0                       # Number of loads ignored due to an invalid address
system.cpu0.iew.lsq.thread0.squashedLoads         2111                       # Number of loads squashed
system.cpu0.iew.lsq.thread0.ignoredResponses            1                       # Number of memory responses ignored because the instruction is squashed
system.cpu0.iew.lsq.thread0.memOrderViolation           17                       # Number of memory ordering violations
system.cpu0.iew.lsq.thread0.squashedStores          977                       # Number of stores squashed
system.cpu0.iew.lsq.thread0.invAddrSwpfs            0                       # Number of software prefetches ignored due to an invalid address
system.cpu0.iew.lsq.thread0.blockedLoads            0                       # Number of blocked loads due to partial load-store forwarding
system.cpu0.iew.lsq.thread0.rescheduledLoads           11                       # Number of loads that were rescheduled
system.cpu0.iew.lsq.thread0.cacheBlocked          184                       # Number of times an access to memory failed due to the cache being blocked
system.cpu0.iew.iewIdleCycles                       0                       # Number of cycles IEW is idle
system.cpu0.iew.iewSquashCycles                  1092                       # Number of cycles IEW is squashing
system.cpu0.iew.iewBlockCycles                    577                       # Number of cycles IEW is blocking
system.cpu0.iew.iewUnblockCycles                  750                       # Number of cycles IEW is unblocking
system.cpu0.iew.iewDispatchedInsts              55952                       # Number of instructions dispatched to IQ
system.cpu0.iew.iewDispSquashedInsts                0                       # Number of squashed instructions skipped by dispatch
system.cpu0.iew.iewDispLoadInsts                 9783                       # Number of dispatched load instructions
system.cpu0.iew.iewDispStoreInsts                7540                       # Number of dispatched store instructions
system.cpu0.iew.iewDispNonSpecInsts               101                       # Number of dispatched non-speculative instructions
system.cpu0.iew.iewIQFullEvents                     4                       # Number of times the IQ has become full, causing a stall
system.cpu0.iew.iewLSQFullEvents                  745                       # Number of times the LSQ has become full, causing a stall
system.cpu0.iew.memOrderViolationEvents            17                       # Number of memory order violations
system.cpu0.iew.predictedTakenIncorrect           131                       # Number of branches that were predicted taken incorrectly
system.cpu0.iew.predictedNotTakenIncorrect          987                       # Number of branches that were predicted not taken incorrectly
system.cpu0.iew.branchMispredicts                1118                       # Number of branch mispredicts detected at execute
system.cpu0.iew.iewExecutedInsts                50795                       # Number of executed instructions
system.cpu0.iew.iewExecLoadInsts                 8741                       # Number of load instructions executed
system.cpu0.iew.iewExecSquashedInsts             1651                       # Number of squashed instructions skipped in execute
system.cpu0.iew.exec_swp                            0                       # number of swp insts executed
system.cpu0.iew.exec_nop                           15                       # number of nop insts executed
system.cpu0.iew.exec_refs                       15577                       # number of memory reference insts executed
system.cpu0.iew.exec_branches                    6060                       # Number of branches executed
system.cpu0.iew.exec_stores                      6836                       # Number of stores executed
system.cpu0.iew.exec_rate                    0.471617                       # Inst execution rate
system.cpu0.iew.wb_sent                         50285                       # cumulative count of insts sent to commit
system.cpu0.iew.wb_count                        50152                       # cumulative count of insts written-back
system.cpu0.iew.wb_producers                    27906                       # num instructions producing a value
system.cpu0.iew.wb_consumers                    47415                       # num instructions consuming a value
system.cpu0.iew.wb_penalized                        0                       # number of instrctions required to write to 'other' IQ
system.cpu0.iew.wb_rate                      0.465647                       # insts written-back per cycle
system.cpu0.iew.wb_fanout                    0.588548                       # average fanout of values written-back
system.cpu0.iew.wb_penalized_rate                   0                       # fraction of instructions written-back that wrote to 'other' IQ
system.cpu0.commit.commitSquashedInsts           7477                       # The number of squashed insts skipped by commit
system.cpu0.commit.commitNonSpecStalls            192                       # The number of times commit has been forced to stall to communicate backwards
system.cpu0.commit.branchMispredicts             1059                       # The number of times a branch was mispredicted
system.cpu0.commit.committed_per_cycle::samples        68756                       # Number of insts commited each cycle
system.cpu0.commit.committed_per_cycle::mean     0.679475                       # Number of insts commited each cycle
system.cpu0.commit.committed_per_cycle::stdev     1.493507                       # Number of insts commited each cycle
system.cpu0.commit.committed_per_cycle::underflows            0      0.00%      0.00% # Number of insts commited each cycle
system.cpu0.commit.committed_per_cycle::0        49108     71.42%     71.42% # Number of insts commited each cycle
system.cpu0.commit.committed_per_cycle::1         9354     13.60%     85.03% # Number of insts commited each cycle
system.cpu0.commit.committed_per_cycle::2         4201      6.11%     91.14% # Number of insts commited each cycle
system.cpu0.commit.committed_per_cycle::3         2461      3.58%     94.72% # Number of insts commited each cycle
system.cpu0.commit.committed_per_cycle::4          850      1.24%     95.95% # Number of insts commited each cycle
system.cpu0.commit.committed_per_cycle::5          785      1.14%     97.10% # Number of insts commited each cycle
system.cpu0.commit.committed_per_cycle::6          798      1.16%     98.26% # Number of insts commited each cycle
system.cpu0.commit.committed_per_cycle::7          126      0.18%     98.44% # Number of insts commited each cycle
system.cpu0.commit.committed_per_cycle::8         1073      1.56%    100.00% # Number of insts commited each cycle
system.cpu0.commit.committed_per_cycle::overflows            0      0.00%    100.00% # Number of insts commited each cycle
system.cpu0.commit.committed_per_cycle::min_value            0                       # Number of insts commited each cycle
system.cpu0.commit.committed_per_cycle::max_value            8                       # Number of insts commited each cycle
system.cpu0.commit.committed_per_cycle::total        68756                       # Number of insts commited each cycle
system.cpu0.commit.committedInsts               41236                       # Number of instructions committed
system.cpu0.commit.committedOps                 46718                       # Number of ops (including micro ops) committed
system.cpu0.commit.swp_count                        0                       # Number of s/w prefetches committed
system.cpu0.commit.refs                         14235                       # Number of memory references committed
system.cpu0.commit.loads                         7672                       # Number of loads committed
system.cpu0.commit.membars                        115                       # Number of memory barriers committed
system.cpu0.commit.branches                      5493                       # Number of branches committed
system.cpu0.commit.fp_insts                        28                       # Number of committed floating point instructions.
system.cpu0.commit.int_insts                    41736                       # Number of committed integer instructions.
system.cpu0.commit.function_calls                 295                       # Number of function calls committed.
system.cpu0.commit.op_class_0::No_OpClass            0      0.00%      0.00% # Class of committed instruction
system.cpu0.commit.op_class_0::IntAlu           28870     61.80%     61.80% # Class of committed instruction
system.cpu0.commit.op_class_0::IntMult           3610      7.73%     69.52% # Class of committed instruction
system.cpu0.commit.op_class_0::IntDiv               0      0.00%     69.52% # Class of committed instruction
system.cpu0.commit.op_class_0::FloatAdd             0      0.00%     69.52% # Class of committed instruction
system.cpu0.commit.op_class_0::FloatCmp             0      0.00%     69.52% # Class of committed instruction
system.cpu0.commit.op_class_0::FloatCvt             0      0.00%     69.52% # Class of committed instruction
system.cpu0.commit.op_class_0::FloatMult            0      0.00%     69.52% # Class of committed instruction
system.cpu0.commit.op_class_0::FloatDiv             0      0.00%     69.52% # Class of committed instruction
system.cpu0.commit.op_class_0::FloatSqrt            0      0.00%     69.52% # Class of committed instruction
system.cpu0.commit.op_class_0::SimdAdd              0      0.00%     69.52% # Class of committed instruction
system.cpu0.commit.op_class_0::SimdAddAcc            0      0.00%     69.52% # Class of committed instruction
system.cpu0.commit.op_class_0::SimdAlu              0      0.00%     69.52% # Class of committed instruction
system.cpu0.commit.op_class_0::SimdCmp              0      0.00%     69.52% # Class of committed instruction
system.cpu0.commit.op_class_0::SimdCvt              0      0.00%     69.52% # Class of committed instruction
system.cpu0.commit.op_class_0::SimdMisc             0      0.00%     69.52% # Class of committed instruction
system.cpu0.commit.op_class_0::SimdMult             0      0.00%     69.52% # Class of committed instruction
system.cpu0.commit.op_class_0::SimdMultAcc            0      0.00%     69.52% # Class of committed instruction
system.cpu0.commit.op_class_0::SimdShift            0      0.00%     69.52% # Class of committed instruction
system.cpu0.commit.op_class_0::SimdShiftAcc            0      0.00%     69.52% # Class of committed instruction
system.cpu0.commit.op_class_0::SimdSqrt             0      0.00%     69.52% # Class of committed instruction
system.cpu0.commit.op_class_0::SimdFloatAdd            0      0.00%     69.52% # Class of committed instruction
system.cpu0.commit.op_class_0::SimdFloatAlu            0      0.00%     69.52% # Class of committed instruction
system.cpu0.commit.op_class_0::SimdFloatCmp            0      0.00%     69.52% # Class of committed instruction
system.cpu0.commit.op_class_0::SimdFloatCvt            0      0.00%     69.52% # Class of committed instruction
[...]
system.cpu3.dcache.ReadReq_avg_mshr_miss_latency::total 18425.373134                       # average ReadReq mshr miss latency
system.cpu3.dcache.WriteReq_avg_mshr_miss_latency::cpu3.data 22777.777778                       # average WriteReq mshr miss latency
system.cpu3.dcache.WriteReq_avg_mshr_miss_latency::total 22777.777778                       # average WriteReq mshr miss latency
system.cpu3.dcache.SoftPFReq_avg_mshr_miss_latency::cpu3.data         9500                       # average SoftPFReq mshr miss latency
system.cpu3.dcache.SoftPFReq_avg_mshr_miss_latency::total         9500                       # average SoftPFReq mshr miss latency
system.cpu3.dcache.LoadLockedReq_avg_mshr_miss_latency::cpu3.data         9000                       # average LoadLockedReq mshr miss latency
system.cpu3.dcache.LoadLockedReq_avg_mshr_miss_latency::total         9000                       # average LoadLockedReq mshr miss latency
system.cpu3.dcache.StoreCondReq_avg_mshr_miss_latency::cpu3.data         9000                       # average StoreCondReq mshr miss latency
system.cpu3.dcache.StoreCondReq_avg_mshr_miss_latency::total         9000                       # average StoreCondReq mshr miss latency
system.cpu3.dcache.demand_avg_mshr_miss_latency::cpu3.data 19347.058824                       # average overall mshr miss latency
system.cpu3.dcache.demand_avg_mshr_miss_latency::total 19347.058824                       # average overall mshr miss latency
system.cpu3.dcache.overall_avg_mshr_miss_latency::cpu3.data 19232.558140                       # average overall mshr miss latency
system.cpu3.dcache.overall_avg_mshr_miss_latency::total 19232.558140                       # average overall mshr miss latency
system.cpu3.dcache.no_allocate_misses               0                       # Number of misses that were no-allocate
system.cpu3.icache.tags.replacements                0                       # number of replacements
system.cpu3.icache.tags.tagsinuse            7.670753                       # Cycle average of tags in use
system.cpu3.icache.tags.total_refs               8269                       # Total number of references to valid blocks.
system.cpu3.icache.tags.sampled_refs               53                       # Sample count of references to valid blocks.
system.cpu3.icache.tags.avg_refs           156.018868                       # Average number of references to valid blocks.
system.cpu3.icache.tags.warmup_cycle                0                       # Cycle when the warmup percentage was hit.
system.cpu3.icache.tags.occ_blocks::cpu3.inst     7.670753                       # Average occupied blocks per requestor
system.cpu3.icache.tags.occ_percent::cpu3.inst     0.014982                       # Average percentage of cache occupancy
system.cpu3.icache.tags.occ_percent::total     0.014982                       # Average percentage of cache occupancy
system.cpu3.icache.tags.occ_task_id_blocks::1024           53                       # Occupied blocks per task id
system.cpu3.icache.tags.age_task_id_blocks_1024::0           46                       # Occupied blocks per task id
system.cpu3.icache.tags.age_task_id_blocks_1024::1            7                       # Occupied blocks per task id
system.cpu3.icache.tags.occ_task_id_percent::1024     0.103516                       # Percentage of cache occupancy per task id
system.cpu3.icache.tags.tag_accesses            16733                       # Number of tag accesses
system.cpu3.icache.tags.data_accesses           16733                       # Number of data accesses
system.cpu3.icache.ReadReq_hits::cpu3.inst         8269                       # number of ReadReq hits
system.cpu3.icache.ReadReq_hits::total           8269                       # number of ReadReq hits
system.cpu3.icache.demand_hits::cpu3.inst         8269                       # number of demand (read+write) hits
system.cpu3.icache.demand_hits::total            8269                       # number of demand (read+write) hits
system.cpu3.icache.overall_hits::cpu3.inst         8269                       # number of overall hits
system.cpu3.icache.overall_hits::total           8269                       # number of overall hits
system.cpu3.icache.ReadReq_misses::cpu3.inst           71                       # number of ReadReq misses
system.cpu3.icache.ReadReq_misses::total           71                       # number of ReadReq misses
system.cpu3.icache.demand_misses::cpu3.inst           71                       # number of demand (read+write) misses
system.cpu3.icache.demand_misses::total            71                       # number of demand (read+write) misses
system.cpu3.icache.overall_misses::cpu3.inst           71                       # number of overall misses
system.cpu3.icache.overall_misses::total           71                       # number of overall misses
system.cpu3.icache.ReadReq_miss_latency::cpu3.inst      4200500                       # number of ReadReq miss cycles
system.cpu3.icache.ReadReq_miss_latency::total      4200500                       # number of ReadReq miss cycles
system.cpu3.icache.demand_miss_latency::cpu3.inst      4200500                       # number of demand (read+write) miss cycles
system.cpu3.icache.demand_miss_latency::total      4200500                       # number of demand (read+write) miss cycles
system.cpu3.icache.overall_miss_latency::cpu3.inst      4200500                       # number of overall miss cycles
system.cpu3.icache.overall_miss_latency::total      4200500                       # number of overall miss cycles
system.cpu3.icache.ReadReq_accesses::cpu3.inst         8340                       # number of ReadReq accesses(hits+misses)
system.cpu3.icache.ReadReq_accesses::total         8340                       # number of ReadReq accesses(hits+misses)
system.cpu3.icache.demand_accesses::cpu3.inst         8340                       # number of demand (read+write) accesses
system.cpu3.icache.demand_accesses::total         8340                       # number of demand (read+write) accesses
system.cpu3.icache.overall_accesses::cpu3.inst         8340                       # number of overall (read+write) accesses
system.cpu3.icache.overall_accesses::total         8340                       # number of overall (read+write) accesses
system.cpu3.icache.ReadReq_miss_rate::cpu3.inst     0.008513                       # miss rate for ReadReq accesses
system.cpu3.icache.ReadReq_miss_rate::total     0.008513                       # miss rate for ReadReq accesses
system.cpu3.icache.demand_miss_rate::cpu3.inst     0.008513                       # miss rate for demand accesses
system.cpu3.icache.demand_miss_rate::total     0.008513                       # miss rate for demand accesses
system.cpu3.icache.overall_miss_rate::cpu3.inst     0.008513                       # miss rate for overall accesses
system.cpu3.icache.overall_miss_rate::total     0.008513                       # miss rate for overall accesses
system.cpu3.icache.ReadReq_avg_miss_latency::cpu3.inst 59161.971831                       # average ReadReq miss latency
system.cpu3.icache.ReadReq_avg_miss_latency::total 59161.971831                       # average ReadReq miss latency
system.cpu3.icache.demand_avg_miss_latency::cpu3.inst 59161.971831                       # average overall miss latency
system.cpu3.icache.demand_avg_miss_latency::total 59161.971831                       # average overall miss latency
system.cpu3.icache.overall_avg_miss_latency::cpu3.inst 59161.971831                       # average overall miss latency
system.cpu3.icache.overall_avg_miss_latency::total 59161.971831                       # average overall miss latency
system.cpu3.icache.blocked_cycles::no_mshrs         1183                       # number of cycles access was blocked
system.cpu3.icache.blocked_cycles::no_targets           42                       # number of cycles access was blocked
system.cpu3.icache.blocked::no_mshrs               11                       # number of cycles access was blocked
system.cpu3.icache.blocked::no_targets              1                       # number of cycles access was blocked
system.cpu3.icache.avg_blocked_cycles::no_mshrs   107.545455                       # average number of cycles each access was blocked
system.cpu3.icache.avg_blocked_cycles::no_targets           42                       # average number of cycles each access was blocked
system.cpu3.icache.fast_writes                      0                       # number of fast writes performed
system.cpu3.icache.cache_copies                     0                       # number of cache copies performed
system.cpu3.icache.ReadReq_mshr_hits::cpu3.inst           18                       # number of ReadReq MSHR hits
system.cpu3.icache.ReadReq_mshr_hits::total           18                       # number of ReadReq MSHR hits
system.cpu3.icache.demand_mshr_hits::cpu3.inst           18                       # number of demand (read+write) MSHR hits
system.cpu3.icache.demand_mshr_hits::total           18                       # number of demand (read+write) MSHR hits
system.cpu3.icache.overall_mshr_hits::cpu3.inst           18                       # number of overall MSHR hits
system.cpu3.icache.overall_mshr_hits::total           18                       # number of overall MSHR hits
system.cpu3.icache.ReadReq_mshr_misses::cpu3.inst           53                       # number of ReadReq MSHR misses
system.cpu3.icache.ReadReq_mshr_misses::total           53                       # number of ReadReq MSHR misses
system.cpu3.icache.demand_mshr_misses::cpu3.inst           53                       # number of demand (read+write) MSHR misses
system.cpu3.icache.demand_mshr_misses::total           53                       # number of demand (read+write) MSHR misses
system.cpu3.icache.overall_mshr_misses::cpu3.inst           53                       # number of overall MSHR misses
system.cpu3.icache.overall_mshr_misses::total           53                       # number of overall MSHR misses
system.cpu3.icache.ReadReq_mshr_miss_latency::cpu3.inst      3225500                       # number of ReadReq MSHR miss cycles
system.cpu3.icache.ReadReq_mshr_miss_latency::total      3225500                       # number of ReadReq MSHR miss cycles
system.cpu3.icache.demand_mshr_miss_latency::cpu3.inst      3225500                       # number of demand (read+write) MSHR miss cycles
system.cpu3.icache.demand_mshr_miss_latency::total      3225500                       # number of demand (read+write) MSHR miss cycles
system.cpu3.icache.overall_mshr_miss_latency::cpu3.inst      3225500                       # number of overall MSHR miss cycles
system.cpu3.icache.overall_mshr_miss_latency::total      3225500                       # number of overall MSHR miss cycles
system.cpu3.icache.ReadReq_mshr_miss_rate::cpu3.inst     0.006355                       # mshr miss rate for ReadReq accesses
system.cpu3.icache.ReadReq_mshr_miss_rate::total     0.006355                       # mshr miss rate for ReadReq accesses
system.cpu3.icache.demand_mshr_miss_rate::cpu3.inst     0.006355                       # mshr miss rate for demand accesses
system.cpu3.icache.demand_mshr_miss_rate::total     0.006355                       # mshr miss rate for demand accesses
system.cpu3.icache.overall_mshr_miss_rate::cpu3.inst     0.006355                       # mshr miss rate for overall accesses
system.cpu3.icache.overall_mshr_miss_rate::total     0.006355                       # mshr miss rate for overall accesses
system.cpu3.icache.ReadReq_avg_mshr_miss_latency::cpu3.inst 60858.490566                       # average ReadReq mshr miss latency
system.cpu3.icache.ReadReq_avg_mshr_miss_latency::total 60858.490566                       # average ReadReq mshr miss latency
system.cpu3.icache.demand_avg_mshr_miss_latency::cpu3.inst 60858.490566                       # average overall mshr miss latency
system.cpu3.icache.demand_avg_mshr_miss_latency::total 60858.490566                       # average overall mshr miss latency
system.cpu3.icache.overall_avg_mshr_miss_latency::cpu3.inst 60858.490566                       # average overall mshr miss latency
system.cpu3.icache.overall_avg_mshr_miss_latency::total 60858.490566                       # average overall mshr miss latency
system.cpu3.icache.no_allocate_misses               0                       # Number of misses that were no-allocate
system.membus.trans_dist::ReadReq                1159                       # Transaction distribution
system.membus.trans_dist::ReadResp               1158                       # Transaction distribution
system.membus.trans_dist::Writeback                13                       # Transaction distribution
system.membus.trans_dist::UpgradeReq               11                       # Transaction distribution
system.membus.trans_dist::SCUpgradeReq              9                       # Transaction distribution
system.membus.trans_dist::UpgradeResp              20                       # Transaction distribution
system.membus.trans_dist::ReadExReq               283                       # Transaction distribution
system.membus.trans_dist::ReadExResp              283                       # Transaction distribution
system.membus.pkt_count_system.cpu0.icache.mem_side::system.mem_ctrls.port         1235                       # Packet count per connected master and slave (bytes)
system.membus.pkt_count_system.cpu0.dcache.mem_side::system.mem_ctrls.port          826                       # Packet count per connected master and slave (bytes)
system.membus.pkt_count_system.cpu1.icache.mem_side::system.mem_ctrls.port          110                       # Packet count per connected master and slave (bytes)
system.membus.pkt_count_system.cpu1.dcache.mem_side::system.mem_ctrls.port          111                       # Packet count per connected master and slave (bytes)
system.membus.pkt_count_system.cpu2.icache.mem_side::system.mem_ctrls.port          108                       # Packet count per connected master and slave (bytes)
system.membus.pkt_count_system.cpu2.dcache.mem_side::system.mem_ctrls.port          107                       # Packet count per connected master and slave (bytes)
system.membus.pkt_count_system.cpu3.icache.mem_side::system.mem_ctrls.port          106                       # Packet count per connected master and slave (bytes)
system.membus.pkt_count_system.cpu3.dcache.mem_side::system.mem_ctrls.port          107                       # Packet count per connected master and slave (bytes)
system.membus.pkt_count::total                   2710                       # Packet count per connected master and slave (bytes)
system.membus.pkt_size_system.cpu0.icache.mem_side::system.mem_ctrls.port        39488                       # Cumulative packet size per connected master and slave (bytes)
system.membus.pkt_size_system.cpu0.dcache.mem_side::system.mem_ctrls.port        26304                       # Cumulative packet size per connected master and slave (bytes)
system.membus.pkt_size_system.cpu1.icache.mem_side::system.mem_ctrls.port         3520                       # Cumulative packet size per connected master and slave (bytes)
system.membus.pkt_size_system.cpu1.dcache.mem_side::system.mem_ctrls.port         1088                       # Cumulative packet size per connected master and slave (bytes)
system.membus.pkt_size_system.cpu2.icache.mem_side::system.mem_ctrls.port         3456                       # Cumulative packet size per connected master and slave (bytes)
system.membus.pkt_size_system.cpu2.dcache.mem_side::system.mem_ctrls.port         1088                       # Cumulative packet size per connected master and slave (bytes)
system.membus.pkt_size_system.cpu3.icache.mem_side::system.mem_ctrls.port         3392                       # Cumulative packet size per connected master and slave (bytes)
system.membus.pkt_size_system.cpu3.dcache.mem_side::system.mem_ctrls.port         1088                       # Cumulative packet size per connected master and slave (bytes)
system.membus.pkt_size::total                   79424                       # Cumulative packet size per connected master and slave (bytes)
system.membus.snoops                              226                       # Total snoops (count)
system.membus.snoop_fanout::samples              1475                       # Request fanout histogram
system.membus.snoop_fanout::mean                    7                       # Request fanout histogram
system.membus.snoop_fanout::stdev                   0                       # Request fanout histogram
system.membus.snoop_fanout::underflows              0      0.00%      0.00% # Request fanout histogram
system.membus.snoop_fanout::0                       0      0.00%      0.00% # Request fanout histogram
system.membus.snoop_fanout::1                       0      0.00%      0.00% # Request fanout histogram
system.membus.snoop_fanout::2                       0      0.00%      0.00% # Request fanout histogram
system.membus.snoop_fanout::3                       0      0.00%      0.00% # Request fanout histogram
system.membus.snoop_fanout::4                       0      0.00%      0.00% # Request fanout histogram
system.membus.snoop_fanout::5                       0      0.00%      0.00% # Request fanout histogram
system.membus.snoop_fanout::6                       0      0.00%      0.00% # Request fanout histogram
system.membus.snoop_fanout::7                    1475    100.00%    100.00% # Request fanout histogram
system.membus.snoop_fanout::8                       0      0.00%    100.00% # Request fanout histogram
system.membus.snoop_fanout::overflows               0      0.00%    100.00% # Request fanout histogram
system.membus.snoop_fanout::min_value               7                       # Request fanout histogram
system.membus.snoop_fanout::max_value               7                       # Request fanout histogram
system.membus.snoop_fanout::total                1475                       # Request fanout histogram
system.membus.reqLayer0.occupancy             1910498                       # Layer occupancy (ticks)
system.membus.reqLayer0.utilization               3.5                       # Layer utilization (%)
system.membus.respLayer1.occupancy            3286750                       # Layer occupancy (ticks)
system.membus.respLayer1.utilization              6.1                       # Layer utilization (%)
system.membus.respLayer2.occupancy            2158495                       # Layer occupancy (ticks)
system.membus.respLayer2.utilization              4.0                       # Layer utilization (%)
system.membus.respLayer5.occupancy             297000                       # Layer occupancy (ticks)
system.membus.respLayer5.utilization              0.6                       # Layer utilization (%)
system.membus.respLayer6.occupancy             465497                       # Layer occupancy (ticks)
system.membus.respLayer6.utilization              0.9                       # Layer utilization (%)
system.membus.respLayer9.occupancy             289750                       # Layer occupancy (ticks)
system.membus.respLayer9.utilization              0.5                       # Layer utilization (%)
system.membus.respLayer10.occupancy            443747                       # Layer occupancy (ticks)
system.membus.respLayer10.utilization             0.8                       # Layer utilization (%)
system.membus.respLayer13.occupancy            285000                       # Layer occupancy (ticks)
system.membus.respLayer13.utilization             0.5                       # Layer utilization (%)
system.membus.respLayer14.occupancy            437000                       # Layer occupancy (ticks)
system.membus.respLayer14.utilization             0.8                       # Layer utilization (%)

---------- End Simulation Statistics   ----------
