
---------- Begin Simulation Statistics ----------
sim_seconds                                  0.000054                       # Number of seconds simulated
sim_ticks                                    53848500                       # Number of ticks simulated
final_tick                                   53848500                       # Number of ticks from beginning of simulation (restored from checkpoints and never reset)
sim_freq                                 1000000000000                       # Frequency of simulated ticks
host_inst_rate                                 123273                       # Simulator instruction rate (inst/s)
host_op_rate                                   129623                       # Simulator op (including micro ops) rate (op/s)
host_tick_rate                               35333603                       # Simulator tick rate (ticks/s)
host_mem_usage                                 676888                       # Number of bytes of host memory used
host_seconds                                     1.52                       # Real time elapsed on the host
sim_insts                                      187864                       # Number of instructions simulated
sim_ops                                        197543                       # Number of ops (including micro ops) simulated
system.voltage_domain.voltage                       1                       # Voltage in Volts
system.clk_domain.clock                          1000                       # Clock period in ticks
system.mem_ctrls.bytes_read::cpu0.inst          39488                       # Number of bytes read from this memory
system.mem_ctrls.bytes_read::cpu0.data          26304                       # Number of bytes read from this memory
system.mem_ctrls.bytes_read::cpu1.inst           3200                       # Number of bytes read from this memory
system.mem_ctrls.bytes_read::cpu1.data           1088                       # Number of bytes read from this memory
system.mem_ctrls.bytes_read::cpu2.inst           3328                       # Number of bytes read from this memory
system.mem_ctrls.bytes_read::cpu2.data           1152                       # Number of bytes read from this memory
system.mem_ctrls.bytes_read::cpu3.inst           3392                       # Number of bytes read from this memory
system.mem_ctrls.bytes_read::cpu3.data           1088                       # Number of bytes read from this memory
system.mem_ctrls.bytes_read::cpu4.inst           3328                       # Number of bytes read from this memory
system.mem_ctrls.bytes_read::cpu4.data           1152                       # Number of bytes read from this memory
system.mem_ctrls.bytes_read::cpu5.inst           3392                       # Number of bytes read from this memory
system.mem_ctrls.bytes_read::cpu5.data           1088                       # Number of bytes read from this memory
system.mem_ctrls.bytes_read::cpu6.inst           3520                       # Number of bytes read from this memory
system.mem_ctrls.bytes_read::cpu6.data           1024                       # Number of bytes read from this memory
system.mem_ctrls.bytes_read::cpu7.inst           3392                       # Number of bytes read from this memory
system.mem_ctrls.bytes_read::cpu7.data           1088                       # Number of bytes read from this memory
system.mem_ctrls.bytes_read::total              97024                       # Number of bytes read from this memory
system.mem_ctrls.bytes_inst_read::cpu0.inst        39488                       # Number of instructions bytes read from this memory
system.mem_ctrls.bytes_inst_read::cpu1.inst         3200                       # Number of instructions bytes read from this memory
system.mem_ctrls.bytes_inst_read::cpu2.inst         3328                       # Number of instructions bytes read from this memory
system.mem_ctrls.bytes_inst_read::cpu3.inst         3392                       # Number of instructions bytes read from this memory
system.mem_ctrls.bytes_inst_read::cpu4.inst         3328                       # Number of instructions bytes read from this memory
system.mem_ctrls.bytes_inst_read::cpu5.inst         3392                       # Number of instructions bytes read from this memory
system.mem_ctrls.bytes_inst_read::cpu6.inst         3520                       # Number of instructions bytes read from this memory
system.mem_ctrls.bytes_inst_read::cpu7.inst         3392                       # Number of instructions bytes read from this memory
system.mem_ctrls.bytes_inst_read::total         63040                       # Number of instructions bytes read from this memory
system.mem_ctrls.bytes_written::writebacks         1088                       # Number of bytes written to this memory
system.mem_ctrls.bytes_written::total            1088                       # Number of bytes written to this memory
system.mem_ctrls.num_reads::cpu0.inst             617                       # Number of read requests responded to by this memory
system.mem_ctrls.num_reads::cpu0.data             411                       # Number of read requests responded to by this memory
system.mem_ctrls.num_reads::cpu1.inst              50                       # Number of read requests responded to by this memory
system.mem_ctrls.num_reads::cpu1.data              17                       # Number of read requests responded to by this memory
system.mem_ctrls.num_reads::cpu2.inst              52                       # Number of read requests responded to by this memory
system.mem_ctrls.num_reads::cpu2.data              18                       # Number of read requests responded to by this memory
system.mem_ctrls.num_reads::cpu3.inst              53                       # Number of read requests responded to by this memory
system.mem_ctrls.num_reads::cpu3.data              17                       # Number of read requests responded to by this memory
system.mem_ctrls.num_reads::cpu4.inst              52                       # Number of read requests responded to by this memory
system.mem_ctrls.num_reads::cpu4.data              18                       # Number of read requests responded to by this memory
system.mem_ctrls.num_reads::cpu5.inst              53                       # Number of read requests responded to by this memory
system.mem_ctrls.num_reads::cpu5.data              17                       # Number of read requests responded to by this memory
system.mem_ctrls.num_reads::cpu6.inst              55                       # Number of read requests responded to by this memory
system.mem_ctrls.num_reads::cpu6.data              16                       # Number of read requests responded to by this memory
system.mem_ctrls.num_reads::cpu7.inst              53                       # Number of read requests responded to by this memory
system.mem_ctrls.num_reads::cpu7.data              17                       # Number of read requests responded to by this memory
system.mem_ctrls.num_reads::total                1516                       # Number of read requests responded to by this memory
system.mem_ctrls.num_writes::writebacks            17                       # Number of write requests responded to by this memory
system.mem_ctrls.num_writes::total                 17                       # Number of write requests responded to by this memory
system.mem_ctrls.bw_read::cpu0.inst         733316620                       # Total read bandwidth from this memory (bytes/s)
system.mem_ctrls.bw_read::cpu0.data         488481573                       # Total read bandwidth from this memory (bytes/s)
system.mem_ctrls.bw_read::cpu1.inst          59425982                       # Total read bandwidth from this memory (bytes/s)
system.mem_ctrls.bw_read::cpu1.data          20204834                       # Total read bandwidth from this memory (bytes/s)
system.mem_ctrls.bw_read::cpu2.inst          61803021                       # Total read bandwidth from this memory (bytes/s)
system.mem_ctrls.bw_read::cpu2.data          21393354                       # Total read bandwidth from this memory (bytes/s)
system.mem_ctrls.bw_read::cpu3.inst          62991541                       # Total read bandwidth from this memory (bytes/s)
system.mem_ctrls.bw_read::cpu3.data          20204834                       # Total read bandwidth from this memory (bytes/s)
system.mem_ctrls.bw_read::cpu4.inst          61803021                       # Total read bandwidth from this memory (bytes/s)
system.mem_ctrls.bw_read::cpu4.data          21393354                       # Total read bandwidth from this memory (bytes/s)
system.mem_ctrls.bw_read::cpu5.inst          62991541                       # Total read bandwidth from this memory (bytes/s)
system.mem_ctrls.bw_read::cpu5.data          20204834                       # Total read bandwidth from this memory (bytes/s)
system.mem_ctrls.bw_read::cpu6.inst          65368580                       # Total read bandwidth from this memory (bytes/s)
system.mem_ctrls.bw_read::cpu6.data          19016314                       # Total read bandwidth from this memory (bytes/s)
system.mem_ctrls.bw_read::cpu7.inst          62991541                       # Total read bandwidth from this memory (bytes/s)
system.mem_ctrls.bw_read::cpu7.data          20204834                       # Total read bandwidth from this memory (bytes/s)
system.mem_ctrls.bw_read::total            1801795779                       # Total read bandwidth from this memory (bytes/s)
system.mem_ctrls.bw_inst_read::cpu0.inst    733316620                       # Instruction read bandwidth from this memory (bytes/s)
system.mem_ctrls.bw_inst_read::cpu1.inst     59425982                       # Instruction read bandwidth from this memory (bytes/s)
system.mem_ctrls.bw_inst_read::cpu2.inst     61803021                       # Instruction read bandwidth from this memory (bytes/s)
system.mem_ctrls.bw_inst_read::cpu3.inst     62991541                       # Instruction read bandwidth from this memory (bytes/s)
system.mem_ctrls.bw_inst_read::cpu4.inst     61803021                       # Instruction read bandwidth from this memory (bytes/s)
system.mem_ctrls.bw_inst_read::cpu5.inst     62991541                       # Instruction read bandwidth from this memory (bytes/s)
system.mem_ctrls.bw_inst_read::cpu6.inst     65368580                       # Instruction read bandwidth from this memory (bytes/s)
system.mem_ctrls.bw_inst_read::cpu7.inst     62991541                       # Instruction read bandwidth from this memory (bytes/s)
system.mem_ctrls.bw_inst_read::total       1170691848                       # Instruction read bandwidth from this memory (bytes/s)
system.mem_ctrls.bw_write::writebacks        20204834                       # Write bandwidth from this memory (bytes/s)
system.mem_ctrls.bw_write::total             20204834                       # Write bandwidth from this memory (bytes/s)
system.mem_ctrls.bw_total::writebacks        20204834                       # Total bandwidth to/from this memory (bytes/s)
system.mem_ctrls.bw_total::cpu0.inst        733316620                       # Total bandwidth to/from this memory (bytes/s)
system.mem_ctrls.bw_total::cpu0.data        488481573                       # Total bandwidth to/from this memory (bytes/s)
system.mem_ctrls.bw_total::cpu1.inst         59425982                       # Total bandwidth to/from this memory (bytes/s)
system.mem_ctrls.bw_total::cpu1.data         20204834                       # Total bandwidth to/from this memory (bytes/s)
system.mem_ctrls.bw_total::cpu2.inst         61803021                       # Total bandwidth to/from this memory (bytes/s)
system.mem_ctrls.bw_total::cpu2.data         21393354                       # Total bandwidth to/from this memory (bytes/s)
system.mem_ctrls.bw_total::cpu3.inst         62991541                       # Total bandwidth to/from this memory (bytes/s)
system.mem_ctrls.bw_total::cpu3.data         20204834                       # Total bandwidth to/from this memory (bytes/s)
system.mem_ctrls.bw_total::cpu4.inst         61803021                       # Total bandwidth to/from this memory (bytes/s)
system.mem_ctrls.bw_total::cpu4.data         21393354                       # Total bandwidth to/from this memory (bytes/s)
system.mem_ctrls.bw_total::cpu5.inst         62991541                       # Total bandwidth to/from this memory (bytes/s)
system.mem_ctrls.bw_total::cpu5.data         20204834                       # Total bandwidth to/from this memory (bytes/s)
system.mem_ctrls.bw_total::cpu6.inst         65368580                       # Total bandwidth to/from this memory (bytes/s)
system.mem_ctrls.bw_total::cpu6.data         19016314                       # Total bandwidth to/from this memory (bytes/s)
system.mem_ctrls.bw_total::cpu7.inst         62991541                       # Total bandwidth to/from this memory (bytes/s)
system.mem_ctrls.bw_total::cpu7.data         20204834                       # Total bandwidth to/from this memory (bytes/s)
system.mem_ctrls.bw_total::total           1822000613                       # Total bandwidth to/from this memory (bytes/s)
system.mem_ctrls.readReqs                        1517                       # Number of read requests accepted
system.mem_ctrls.writeReqs                         17                       # Number of write requests accepted
system.mem_ctrls.readBursts                      1517                       # Number of DRAM read bursts, including those serviced by the write queue
system.mem_ctrls.writeBursts                       17                       # Number of DRAM write bursts, including those merged in the write queue
system.mem_ctrls.bytesReadDRAM                  95744                       # Total number of bytes read from DRAM
system.mem_ctrls.bytesReadWrQ                    1344                       # Total number of bytes read from write queue
system.mem_ctrls.bytesWritten                       0                       # Total number of bytes written to DRAM
system.mem_ctrls.bytesReadSys                   97088                       # Total read bytes from the system interface side
system.mem_ctrls.bytesWrittenSys                 1088                       # Total written bytes from the system interface side
system.mem_ctrls.servicedByWrQ                     21                       # Number of DRAM read bursts serviced by the write queue
system.mem_ctrls.mergedWrBursts                     2                       # Number of DRAM write bursts merged with an existing one
system.mem_ctrls.neitherReadNorWriteReqs            6                       # Number of requests that are neither read nor write
system.mem_ctrls.perBankRdBursts::0               211                       # Per bank write bursts
system.mem_ctrls.perBankRdBursts::1               363                       # Per bank write bursts
system.mem_ctrls.perBankRdBursts::2               217                       # Per bank write bursts
system.mem_ctrls.perBankRdBursts::3               240                       # Per bank write bursts
system.mem_ctrls.perBankRdBursts::4                62                       # Per bank write bursts
system.mem_ctrls.perBankRdBursts::5                56                       # Per bank write bursts
system.mem_ctrls.perBankRdBursts::6               117                       # Per bank write bursts
system.mem_ctrls.perBankRdBursts::7                33                       # Per bank write bursts
system.mem_ctrls.perBankRdBursts::8                16                       # Per bank write bursts
system.mem_ctrls.perBankRdBursts::9                 8                       # Per bank write bursts
system.mem_ctrls.perBankRdBursts::10                0                       # Per bank write bursts
system.mem_ctrls.perBankRdBursts::11               15                       # Per bank write bursts
system.mem_ctrls.perBankRdBursts::12                8                       # Per bank write bursts
system.mem_ctrls.perBankRdBursts::13               40                       # Per bank write bursts
system.mem_ctrls.perBankRdBursts::14               39                       # Per bank write bursts
system.mem_ctrls.perBankRdBursts::15               71                       # Per bank write bursts
system.mem_ctrls.perBankWrBursts::0                 0                       # Per bank write bursts
system.mem_ctrls.perBankWrBursts::1                 0                       # Per bank write bursts
system.mem_ctrls.perBankWrBursts::2                 0                       # Per bank write bursts
system.mem_ctrls.perBankWrBursts::3                 0                       # Per bank write bursts
system.mem_ctrls.perBankWrBursts::4                 0                       # Per bank write bursts
system.mem_ctrls.perBankWrBursts::5                 0                       # Per bank write bursts
system.mem_ctrls.perBankWrBursts::6                 0                       # Per bank write bursts
system.mem_ctrls.perBankWrBursts::7                 0                       # Per bank write bursts
system.mem_ctrls.perBankWrBursts::8                 0                       # Per bank write bursts
system.mem_ctrls.perBankWrBursts::9                 0                       # Per bank write bursts
system.mem_ctrls.perBankWrBursts::10                0                       # Per bank write bursts
system.mem_ctrls.perBankWrBursts::11                0                       # Per bank write bursts
system.mem_ctrls.perBankWrBursts::12                0                       # Per bank write bursts
system.mem_ctrls.perBankWrBursts::13                0                       # Per bank write bursts
system.mem_ctrls.perBankWrBursts::14                0                       # Per bank write bursts
system.mem_ctrls.perBankWrBursts::15                0                       # Per bank write bursts
system.mem_ctrls.numRdRetry                         0                       # Number of times read queue was full causing retry
system.mem_ctrls.numWrRetry                         0                       # Number of times write queue was full causing retry
system.mem_ctrls.totGap                      53846000                       # Total gap between requests
system.mem_ctrls.readPktSize::0                     0                       # Read request sizes (log2)
system.mem_ctrls.readPktSize::1                     0                       # Read request sizes (log2)
system.mem_ctrls.readPktSize::2                     0                       # Read request sizes (log2)
system.mem_ctrls.readPktSize::3                     0                       # Read request sizes (log2)
system.mem_ctrls.readPktSize::4                     0                       # Read request sizes (log2)
system.mem_ctrls.readPktSize::5                     0                       # Read request sizes (log2)
system.mem_ctrls.readPktSize::6                  1517                       # Read request sizes (log2)
system.mem_ctrls.writePktSize::0                    0                       # Write request sizes (log2)
system.mem_ctrls.writePktSize::1                    0                       # Write request sizes (log2)
system.mem_ctrls.writePktSize::2                    0                       # Write request sizes (log2)
system.mem_ctrls.writePktSize::3                    0                       # Write request sizes (log2)
system.mem_ctrls.writePktSize::4                    0                       # Write request sizes (log2)
system.mem_ctrls.writePktSize::5                    0                       # Write request sizes (log2)
system.mem_ctrls.writePktSize::6                   17                       # Write request sizes (log2)
system.mem_ctrls.rdQLenPdf::0                     667                       # What read queue length does an incoming req see
system.mem_ctrls.rdQLenPdf::1                     303                       # What read queue length does an incoming req see
system.mem_ctrls.rdQLenPdf::2                     127                       # What read queue length does an incoming req see
system.mem_ctrls.rdQLenPdf::3                      78                       # What read queue length does an incoming req see
system.mem_ctrls.rdQLenPdf::4                      61                       # What read queue length does an incoming req see
system.mem_ctrls.rdQLenPdf::5                      49                       # What read queue length does an incoming req see
system.mem_ctrls.rdQLenPdf::6                      41                       # What read queue length does an incoming req see
system.mem_ctrls.rdQLenPdf::7                      43                       # What read queue length does an incoming req see
system.mem_ctrls.rdQLenPdf::8                      38                       # What read queue length does an incoming req see
system.mem_ctrls.rdQLenPdf::9                      27                       # What read queue length does an incoming req see
system.mem_ctrls.rdQLenPdf::10                     20                       # What read queue length does an incoming req see
system.mem_ctrls.rdQLenPdf::11                     21                       # What read queue length does an incoming req see
system.mem_ctrls.rdQLenPdf::12                     10                       # What read queue length does an incoming req see
system.mem_ctrls.rdQLenPdf::13                      6                       # What read queue length does an incoming req see
system.mem_ctrls.rdQLenPdf::14                      3                       # What read queue length does an incoming req see
system.mem_ctrls.rdQLenPdf::15                      2                       # What read queue length does an incoming req see
system.mem_ctrls.rdQLenPdf::16                      0                       # What read queue length does an incoming req see
system.mem_ctrls.rdQLenPdf::17                      0                       # What read queue length does an incoming req see
system.mem_ctrls.rdQLenPdf::18                      0                       # What read queue length does an incoming req see
system.mem_ctrls.rdQLenPdf::19                      0                       # What read queue length does an incoming req see
system.mem_ctrls.rdQLenPdf::20                      0                       # What read queue length does an incoming req see
system.mem_ctrls.rdQLenPdf::21                      0                       # What read queue length does an incoming req see
system.mem_ctrls.rdQLenPdf::22                      0                       # What read queue length does an incoming req see
system.mem_ctrls.rdQLenPdf::23                      0                       # What read queue length does an incoming req see
system.mem_ctrls.rdQLenPdf::24                      0                       # What read queue length does an incoming req see
system.mem_ctrls.rdQLenPdf::25                      0                       # What read queue length does an incoming req see
system.mem_ctrls.rdQLenPdf::26                      0                       # What read queue length does an incoming req see
system.mem_ctrls.rdQLenPdf::27                      0                       # What read queue length does an incoming req see
system.mem_ctrls.rdQLenPdf::28                      0                       # What read queue length does an incoming req see
system.mem_ctrls.rdQLenPdf::29                      0                       # What read queue length does an incoming req see
system.mem_ctrls.rdQLenPdf::30                      0                       # What read queue length does an incoming req see
system.mem_ctrls.rdQLenPdf::31                      0                       # What read queue length does an incoming req see
system.mem_ctrls.wrQLenPdf::0                       1                       # What write queue length does an incoming req see
system.mem_ctrls.wrQLenPdf::1                       1                       # What write queue length does an incoming req see
system.mem_ctrls.wrQLenPdf::2                       1                       # What write queue length does an incoming req see
system.mem_ctrls.wrQLenPdf::3                       1                       # What write queue length does an incoming req see
system.mem_ctrls.wrQLenPdf::4                       1                       # What write queue length does an incoming req see
system.mem_ctrls.wrQLenPdf::5                       1                       # What write queue length does an incoming req see
system.mem_ctrls.wrQLenPdf::6                       1                       # What write queue length does an incoming req see
system.mem_ctrls.wrQLenPdf::7                       1                       # What write queue length does an incoming req see
system.mem_ctrls.wrQLenPdf::8                       1                       # What write queue length does an incoming req see
system.mem_ctrls.wrQLenPdf::9                       1                       # What write queue length does an incoming req see
system.mem_ctrls.wrQLenPdf::10                      1                       # What write queue length does an incoming req see
system.mem_ctrls.wrQLenPdf::11                      1                       # What write queue length does an incoming req see
system.mem_ctrls.wrQLenPdf::12                      1                       # What write queue length does an incoming req see
system.mem_ctrls.wrQLenPdf::13                      1                       # What write queue length does an incoming req see
system.mem_ctrls.wrQLenPdf::14                      1                       # What write queue length does an incoming req see
system.mem_ctrls.wrQLenPdf::15                      0                       # What write queue length does an incoming req see
system.mem_ctrls.wrQLenPdf::16                      0                       # What write queue length does an incoming req see
system.mem_ctrls.wrQLenPdf::17                      0                       # What write queue length does an incoming req see
system.mem_ctrls.wrQLenPdf::18                      0                       # What write queue length does an incoming req see
system.mem_ctrls.wrQLenPdf::19                      0                       # What write queue length does an incoming req see
system.mem_ctrls.wrQLenPdf::20                      0                       # What write queue length does an incoming req see
system.mem_ctrls.wrQLenPdf::21                      0                       # What write queue length does an incoming req see
system.mem_ctrls.wrQLenPdf::22                      0                       # What write queue length does an incoming req see
system.mem_ctrls.wrQLenPdf::23                      0                       # What write queue length does an incoming req see
system.mem_ctrls.wrQLenPdf::24                      0                       # What write queue length does an incoming req see
system.mem_ctrls.wrQLenPdf::25                      0                       # What write queue length does an incoming req see
system.mem_ctrls.wrQLenPdf::26                      0                       # What write queue length does an incoming req see
system.mem_ctrls.wrQLenPdf::27                      0                       # What write queue length does an incoming req see
system.mem_ctrls.wrQLenPdf::28                      0                       # What write queue length does an incoming req see
system.mem_ctrls.wrQLenPdf::29                      0                       # What write queue length does an incoming req see
system.mem_ctrls.wrQLenPdf::30                      0                       # What write queue length does an incoming req see
system.mem_ctrls.wrQLenPdf::31                      0                       # What write queue length does an incoming req see
system.mem_ctrls.wrQLenPdf::32                      0                       # What write queue length does an incoming req see
system.mem_ctrls.wrQLenPdf::33                      0                       # What write queue length does an incoming req see
system.mem_ctrls.wrQLenPdf::34                      0                       # What write queue length does an incoming req see
system.mem_ctrls.wrQLenPdf::35                      0                       # What write queue length does an incoming req see
system.mem_ctrls.wrQLenPdf::36                      0                       # What write queue length does an incoming req see
system.mem_ctrls.wrQLenPdf::37                      0                       # What write queue length does an incoming req see
system.mem_ctrls.wrQLenPdf::38                      0                       # What write queue length does an incoming req see
system.mem_ctrls.wrQLenPdf::39                      0                       # What write queue length does an incoming req see
system.mem_ctrls.wrQLenPdf::40                      0                       # What write queue length does an incoming req see
system.mem_ctrls.wrQLenPdf::41                      0                       # What write queue length does an incoming req see
system.mem_ctrls.wrQLenPdf::42                      0                       # What write queue length does an incoming req see
system.mem_ctrls.wrQLenPdf::43                      0                       # What write queue length does an incoming req see
system.mem_ctrls.wrQLenPdf::44                      0                       # What write queue length does an incoming req see
system.mem_ctrls.wrQLenPdf::45                      0                       # What write queue length does an incoming req see
system.mem_ctrls.wrQLenPdf::46                      0                       # What write queue length does an incoming req see
system.mem_ctrls.wrQLenPdf::47                      0                       # What write queue length does an incoming req see
system.mem_ctrls.wrQLenPdf::48                      0                       # What write queue length does an incoming req see
system.mem_ctrls.wrQLenPdf::49                      0                       # What write queue length does an incoming req see
system.mem_ctrls.wrQLenPdf::50                      0                       # What write queue length does an incoming req see
system.mem_ctrls.wrQLenPdf::51                      0                       # What write queue length does an incoming req see
system.mem_ctrls.wrQLenPdf::52                      0                       # What write queue length does an incoming req see
system.mem_ctrls.wrQLenPdf::53                      0                       # What write queue length does an incoming req see
system.mem_ctrls.wrQLenPdf::54                      0                       # What write queue length does an incoming req see
system.mem_ctrls.wrQLenPdf::55                      0                       # What write queue length does an incoming req see
system.mem_ctrls.wrQLenPdf::56                      0                       # What write queue length does an incoming req see
system.mem_ctrls.wrQLenPdf::57                      0                       # What write queue length does an incoming req see
system.mem_ctrls.wrQLenPdf::58                      0                       # What write queue length does an incoming req see
system.mem_ctrls.wrQLenPdf::59                      0                       # What write queue length does an incoming req see
system.mem_ctrls.wrQLenPdf::60                      0                       # What write queue length does an incoming req see
system.mem_ctrls.wrQLenPdf::61                      0                       # What write queue length does an incoming req see
system.mem_ctrls.wrQLenPdf::62                      0                       # What write queue length does an incoming req see
system.mem_ctrls.wrQLenPdf::63                      0                       # What write queue length does an incoming req see
system.mem_ctrls.bytesPerActivate::samples          300                       # Bytes accessed per row activation
system.mem_ctrls.bytesPerActivate::mean    310.826667                       # Bytes accessed per row activation
system.mem_ctrls.bytesPerActivate::gmean   174.540201                       # Bytes accessed per row activation
system.mem_ctrls.bytesPerActivate::stdev   341.613107                       # Bytes accessed per row activation
system.mem_ctrls.bytesPerActivate::0-127          131     43.67%     43.67% # Bytes accessed per row activation
system.mem_ctrls.bytesPerActivate::128-255           53     17.67%     61.33% # Bytes accessed per row activation
system.mem_ctrls.bytesPerActivate::256-383           29      9.67%     71.00% # Bytes accessed per row activation
system.mem_ctrls.bytesPerActivate::384-511           20      6.67%     77.67% # Bytes accessed per row activation
system.mem_ctrls.bytesPerActivate::512-639            9      3.00%     80.67% # Bytes accessed per row activation
system.mem_ctrls.bytesPerActivate::640-767            6      2.00%     82.67% # Bytes accessed per row activation
system.mem_ctrls.bytesPerActivate::768-895            8      2.67%     85.33% # Bytes accessed per row activation
system.mem_ctrls.bytesPerActivate::896-1023            4      1.33%     86.67% # Bytes accessed per row activation
system.mem_ctrls.bytesPerActivate::1024-1151           40     13.33%    100.00% # Bytes accessed per row activation
system.mem_ctrls.bytesPerActivate::total          300                       # Bytes accessed per row activation
system.mem_ctrls.totQLat                     27521250                       # Total ticks spent queuing
system.mem_ctrls.totMemAccLat                55571250                       # Total ticks spent from burst creation until serviced by the DRAM
system.mem_ctrls.totBusLat                    7480000                       # Total ticks spent in databus transfers
system.mem_ctrls.avgQLat                     18396.56                       # Average queueing delay per DRAM burst
system.mem_ctrls.avgBusLat                    5000.00                       # Average bus latency per DRAM burst
system.mem_ctrls.avgMemAccLat                37146.56                       # Average memory access latency per DRAM burst
system.mem_ctrls.avgRdBW                      1778.03                       # Average DRAM read bandwidth in MiByte/s
system.mem_ctrls.avgWrBW                         0.00                       # Average achieved write bandwidth in MiByte/s
system.mem_ctrls.avgRdBWSys                   1802.98                       # Average system read bandwidth in MiByte/s
system.mem_ctrls.avgWrBWSys                     20.20                       # Average system write bandwidth in MiByte/s
system.mem_ctrls.peakBW                      12800.00                       # Theoretical peak bandwidth in MiByte/s
system.mem_ctrls.busUtil                        13.89                       # Data bus utilization in percentage
system.mem_ctrls.busUtilRead                    13.89                       # Data bus utilization in percentage for reads
system.mem_ctrls.busUtilWrite                    0.00                       # Data bus utilization in percentage for writes
system.mem_ctrls.avgRdQLen                       1.98                       # Average read queue length when enqueuing
system.mem_ctrls.avgWrQLen                       3.81                       # Average write queue length when enqueuing
system.mem_ctrls.readRowHits                     1185                       # Number of row buffer hits during reads
system.mem_ctrls.writeRowHits                       0                       # Number of row buffer hits during writes
system.mem_ctrls.readRowHitRate                 79.21                       # Row buffer hit rate for reads
system.mem_ctrls.writeRowHitRate                 0.00                       # Row buffer hit rate for writes
system.mem_ctrls.avgGap                      35101.69                       # Average gap between requests
system.mem_ctrls.pageHitRate                    78.42                       # Row buffer hit rate, read and write combined
system.mem_ctrls_0.actEnergy                  1799280                       # Energy for activate commands per rank (pJ)
system.mem_ctrls_0.preEnergy                   981750                       # Energy for precharge commands per rank (pJ)
system.mem_ctrls_0.readEnergy                 8595600                       # Energy for read commands per rank (pJ)
system.mem_ctrls_0.writeEnergy                      0                       # Energy for write commands per rank (pJ)
system.mem_ctrls_0.refreshEnergy              3051360                       # Energy for refresh commands per rank (pJ)
system.mem_ctrls_0.actBackEnergy             31611060                       # Energy for active background per rank (pJ)
system.mem_ctrls_0.preBackEnergy               476250                       # Energy for precharge background per rank (pJ)
system.mem_ctrls_0.totalEnergy               46515300                       # Total energy per rank (pJ)
system.mem_ctrls_0.averagePower            989.503018                       # Core power per rank (mW)
system.mem_ctrls_0.memoryStateTime::IDLE       600000                       # Time in different power states
system.mem_ctrls_0.memoryStateTime::REF       1560000                       # Time in different power states
system.mem_ctrls_0.memoryStateTime::PRE_PDN            0                       # Time in different power states
system.mem_ctrls_0.memoryStateTime::ACT      44862250                       # Time in different power states
system.mem_ctrls_0.memoryStateTime::ACT_PDN            0                       # Time in different power states
system.mem_ctrls_1.actEnergy                   226800                       # Energy for activate commands per rank (pJ)
system.mem_ctrls_1.preEnergy                   123750                       # Energy for precharge commands per rank (pJ)
system.mem_ctrls_1.readEnergy                 1177800                       # Energy for read commands per rank (pJ)
system.mem_ctrls_1.writeEnergy                      0                       # Energy for write commands per rank (pJ)
system.mem_ctrls_1.refreshEnergy              3051360                       # Energy for refresh commands per rank (pJ)
system.mem_ctrls_1.actBackEnergy             25634610                       # Energy for active background per rank (pJ)
system.mem_ctrls_1.preBackEnergy              5700000                       # Energy for precharge background per rank (pJ)
system.mem_ctrls_1.totalEnergy               35914320                       # Total energy per rank (pJ)
system.mem_ctrls_1.averagePower            764.500452                       # Core power per rank (mW)
system.mem_ctrls_1.memoryStateTime::IDLE      9602500                       # Time in different power states
system.mem_ctrls_1.memoryStateTime::REF       1560000                       # Time in different power states
system.mem_ctrls_1.memoryStateTime::PRE_PDN            0                       # Time in different power states
system.mem_ctrls_1.memoryStateTime::ACT      36084000                       # Time in different power states
system.mem_ctrls_1.memoryStateTime::ACT_PDN            0                       # Time in different power states
system.cpu0.branchPred.lookups                   9159                       # Number of BP lookups
system.cpu0.branchPred.condPredicted             6829                       # Number of conditional branches predicted
system.cpu0.branchPred.condIncorrect             1339                       # Number of conditional branches incorrect
system.cpu0.branchPred.BTBLookups                3688                       # Number of BTB lookups
system.cpu0.branchPred.BTBHits                   2904                       # Number of BTB hits
system.cpu0.branchPred.BTBCorrect                   0                       # Number of correct BTB predictions (this stat may not work properly.
system.cpu0.branchPred.BTBHitPct            78.741866                       # BTB Hit Percentage
system.cpu0.branchPred.usedRAS                    778                       # Number of times the RAS was used to get a target.
system.cpu0.branchPred.RASInCorrect                 7                       # Number of incorrect RAS predictions.
system.cpu_voltage_domain.voltage                   1                       # Voltage in Volts
system.cpu_clk_domain.clock                       500                       # Clock period in ticks
system.cpu0.dstage2_mmu.stage2_tlb.walker.walks            0                       # Table walker walks requested
system.cpu0.dstage2_mmu.stage2_tlb.walker.walkRequestOrigin_Requested::Data            0                       # Table walker requests started/completed, data/inst
system.cpu0.dstage2_mmu.stage2_tlb.walker.walkRequestOrigin_Requested::Inst            0                       # Table walker requests started/completed, data/inst
system.cpu0.dstage2_mmu.stage2_tlb.walker.walkRequestOrigin_Requested::total            0                       # Table walker requests started/completed, data/inst
system.cpu0.dstage2_mmu.stage2_tlb.walker.walkRequestOrigin_Completed::Data            0                       # Table walker requests started/completed, data/inst
system.cpu0.dstage2_mmu.stage2_tlb.walker.walkRequestOrigin_Completed::Inst            0                       # Table walker requests started/completed, data/inst
system.cpu0.dstage2_mmu.stage2_tlb.walker.walkRequestOrigin_Completed::total            0                       # Table walker requests started/completed, data/inst
system.cpu0.dstage2_mmu.stage2_tlb.walker.walkRequestOrigin::total            0                       # Table walker requests started/completed, data/inst
system.cpu0.dstage2_mmu.stage2_tlb.inst_hits            0                       # ITB inst hits
system.cpu0.dstage2_mmu.stage2_tlb.inst_misses            0                       # ITB inst misses
system.cpu0.dstage2_mmu.stage2_tlb.read_hits            0                       # DTB read hits
system.cpu0.dstage2_mmu.stage2_tlb.read_misses            0                       # DTB read misses
system.cpu0.dstage2_mmu.stage2_tlb.write_hits            0                       # DTB write hits
system.cpu0.dstage2_mmu.stage2_tlb.write_misses            0                       # DTB write misses
system.cpu0.dstage2_mmu.stage2_tlb.flush_tlb            0                       # Number of times complete TLB was flushed
system.cpu0.dstage2_mmu.stage2_tlb.flush_tlb_mva            0                       # Number of times TLB was flushed by MVA
system.cpu0.dstage2_mmu.stage2_tlb.flush_tlb_mva_asid            0                       # Number of times TLB was flushed by MVA & ASID
system.cpu0.dstage2_mmu.stage2_tlb.flush_tlb_asid            0                       # Number of times TLB was flushed by ASID
system.cpu0.dstage2_mmu.stage2_tlb.flush_entries            0                       # Number of entries that have been flushed from TLB
system.cpu0.dstage2_mmu.stage2_tlb.align_faults            0                       # Number of TLB faults due to alignment restrictions
system.cpu0.dstage2_mmu.stage2_tlb.prefetch_faults            0                       # Number of TLB faults due to prefetch
system.cpu0.dstage2_mmu.stage2_tlb.domain_faults            0                       # Number of TLB faults due to domain restrictions
system.cpu0.dstage2_mmu.stage2_tlb.perms_faults            0                       # Number of TLB faults due to permissions restrictions
system.cpu0.dstage2_mmu.stage2_tlb.read_accesses            0                       # DTB read accesses
system.cpu0.dstage2_mmu.stage2_tlb.write_accesses            0                       # DTB write accesses
system.cpu0.dstage2_mmu.stage2_tlb.inst_accesses            0                       # ITB inst accesses
system.cpu0.dstage2_mmu.stage2_tlb.hits             0                       # DTB hits
system.cpu0.dstage2_mmu.stage2_tlb.misses            0                       # DTB misses
system.cpu0.dstage2_mmu.stage2_tlb.accesses            0                       # DTB accesses
system.cpu0.dtb.walker.walks                        0                       # Table walker walks requested
system.cpu0.dtb.walker.walkRequestOrigin_Requested::Data            0                       # Table walker requests started/completed, data/inst
system.cpu0.dtb.walker.walkRequestOrigin_Requested::Inst            0                       # Table walker requests started/completed, data/inst
system.cpu0.dtb.walker.walkRequestOrigin_Requested::total            0                       # Table walker requests started/completed, data/inst
system.cpu0.dtb.walker.walkRequestOrigin_Completed::Data            0                       # Table walker requests started/completed, data/inst
system.cpu0.dtb.walker.walkRequestOrigin_Completed::Inst            0                       # Table walker requests started/completed, data/inst
system.cpu0.dtb.walker.walkRequestOrigin_Completed::total            0                       # Table walker requests started/completed, data/inst
system.cpu0.dtb.walker.walkRequestOrigin::total            0                       # Table walker requests started/completed, data/inst
system.cpu0.dtb.inst_hits                           0                       # ITB inst hits
system.cpu0.dtb.inst_misses                         0                       # ITB inst misses
system.cpu0.dtb.read_hits                           0                       # DTB read hits
system.cpu0.dtb.read_misses                         0                       # DTB read misses
system.cpu0.dtb.write_hits                          0                       # DTB write hits
system.cpu0.dtb.write_misses                        0                       # DTB write misses
system.cpu0.dtb.flush_tlb                           0                       # Number of times complete TLB was flushed
system.cpu0.dtb.flush_tlb_mva                       0                       # Number of times TLB was flushed by MVA
system.cpu0.dtb.flush_tlb_mva_asid                  0                       # Number of times TLB was flushed by MVA & ASID
system.cpu0.dtb.flush_tlb_asid                      0                       # Number of times TLB was flushed by ASID
system.cpu0.dtb.flush_entries                       0                       # Number of entries that have been flushed from TLB
system.cpu0.dtb.align_faults                        0                       # Number of TLB faults due to alignment restrictions
system.cpu0.dtb.prefetch_faults                     0                       # Number of TLB faults due to prefetch
system.cpu0.dtb.domain_faults                       0                       # Number of TLB faults due to domain restrictions
system.cpu0.dtb.perms_faults                        0                       # Number of TLB faults due to permissions restrictions
system.cpu0.dtb.read_accesses                       0                       # DTB read accesses
system.cpu0.dtb.write_accesses                      0                       # DTB write accesses
system.cpu0.dtb.inst_accesses                       0                       # ITB inst accesses
system.cpu0.dtb.hits                                0                       # DTB hits
system.cpu0.dtb.misses                              0                       # DTB misses
system.cpu0.dtb.accesses                            0                       # DTB accesses
system.cpu0.istage2_mmu.stage2_tlb.walker.walks            0                       # Table walker walks requested
system.cpu0.istage2_mmu.stage2_tlb.walker.walkRequestOrigin_Requested::Data            0                       # Table walker requests started/completed, data/inst
system.cpu0.istage2_mmu.stage2_tlb.walker.walkRequestOrigin_Requested::Inst            0                       # Table walker requests started/completed, data/inst
system.cpu0.istage2_mmu.stage2_tlb.walker.walkRequestOrigin_Requested::total            0                       # Table walker requests started/completed, data/inst
system.cpu0.istage2_mmu.stage2_tlb.walker.walkRequestOrigin_Completed::Data            0                       # Table walker requests started/completed, data/inst
system.cpu0.istage2_mmu.stage2_tlb.walker.walkRequestOrigin_Completed::Inst            0                       # Table walker requests started/completed, data/inst
system.cpu0.istage2_mmu.stage2_tlb.walker.walkRequestOrigin_Completed::total            0                       # Table walker requests started/completed, data/inst
system.cpu0.istage2_mmu.stage2_tlb.walker.walkRequestOrigin::total            0                       # Table walker requests started/completed, data/inst
system.cpu0.istage2_mmu.stage2_tlb.inst_hits            0                       # ITB inst hits
system.cpu0.istage2_mmu.stage2_tlb.inst_misses            0                       # ITB inst misses
system.cpu0.istage2_mmu.stage2_tlb.read_hits            0                       # DTB read hits
system.cpu0.istage2_mmu.stage2_tlb.read_misses            0                       # DTB read misses
system.cpu0.istage2_mmu.stage2_tlb.write_hits            0                       # DTB write hits
system.cpu0.istage2_mmu.stage2_tlb.write_misses            0                       # DTB write misses
system.cpu0.istage2_mmu.stage2_tlb.flush_tlb            0                       # Number of times complete TLB was flushed
system.cpu0.istage2_mmu.stage2_tlb.flush_tlb_mva            0                       # Number of times TLB was flushed by MVA
system.cpu0.istage2_mmu.stage2_tlb.flush_tlb_mva_asid            0                       # Number of times TLB was flushed by MVA & ASID
system.cpu0.istage2_mmu.stage2_tlb.flush_tlb_asid            0                       # Number of times TLB was flushed by ASID
system.cpu0.istage2_mmu.stage2_tlb.flush_entries            0                       # Number of entries that have been flushed from TLB
system.cpu0.istage2_mmu.stage2_tlb.align_faults            0                       # Number of TLB faults due to alignment restrictions
system.cpu0.istage2_mmu.stage2_tlb.prefetch_faults            0                       # Number of TLB faults due to prefetch
system.cpu0.istage2_mmu.stage2_tlb.domain_faults            0                       # Number of TLB faults due to domain restrictions
system.cpu0.istage2_mmu.stage2_tlb.perms_faults            0                       # Number of TLB faults due to permissions restrictions
system.cpu0.istage2_mmu.stage2_tlb.read_accesses            0                       # DTB read accesses
system.cpu0.istage2_mmu.stage2_tlb.write_accesses            0                       # DTB write accesses
system.cpu0.istage2_mmu.stage2_tlb.inst_accesses            0                       # ITB inst accesses
system.cpu0.istage2_mmu.stage2_tlb.hits             0                       # DTB hits
system.cpu0.istage2_mmu.stage2_tlb.misses            0                       # DTB misses
system.cpu0.istage2_mmu.stage2_tlb.accesses            0                       # DTB accesses
system.cpu0.itb.walker.walks                        0                       # Table walker walks requested
system.cpu0.itb.walker.walkRequestOrigin_Requested::Data            0                       # Table walker requests started/completed, data/inst
system.cpu0.itb.walker.walkRequestOrigin_Requested::Inst            0                       # Table walker requests started/completed, data/inst
system.cpu0.itb.walker.walkRequestOrigin_Requested::total            0                       # Table walker requests started/completed, data/inst
system.cpu0.itb.walker.walkRequestOrigin_Completed::Data            0                       # Table walker requests started/completed, data/inst
system.cpu0.itb.walker.walkRequestOrigin_Completed::Inst            0                       # Table walker requests started/completed, data/inst
system.cpu0.itb.walker.walkRequestOrigin_Completed::total            0                       # Table walker requests started/completed, data/inst
system.cpu0.itb.walker.walkRequestOrigin::total            0                       # Table walker requests started/completed, data/inst
system.cpu0.itb.inst_hits                           0                       # ITB inst hits
system.cpu0.itb.inst_misses                         0                       # ITB inst misses
system.cpu0.itb.read_hits                           0                       # DTB read hits
system.cpu0.itb.read_misses                         0                       # DTB read misses
system.cpu0.itb.write_hits                          0                       # DTB write hits
system.cpu0.itb.write_misses                        0                       # DTB write misses
system.cpu0.itb.flush_tlb                           0                       # Number of times complete TLB was flushed
system.cpu0.itb.flush_tlb_mva                       0                       # Number of times TLB was flushed by MVA
system.cpu0.itb.flush_tlb_mva_asid                  0                       # Number of times TLB was flushed by MVA & ASID
system.cpu0.itb.flush_tlb_asid                      0                       # Number of times TLB was flushed by ASID
system.cpu0.itb.flush_entries                       0                       # Number of entries that have been flushed from TLB
system.cpu0.itb.align_faults                        0                       # Number of TLB faults due to alignment restrictions
system.cpu0.itb.prefetch_faults                     0                       # Number of TLB faults due to prefetch
system.cpu0.itb.domain_faults                       0                       # Number of TLB faults due to domain restrictions
system.cpu0.itb.perms_faults                        0                       # Number of TLB faults due to permissions restrictions
system.cpu0.itb.read_accesses                       0                       # DTB read accesses
system.cpu0.itb.write_accesses                      0                       # DTB write accesses
system.cpu0.itb.inst_accesses                       0                       # ITB inst accesses
system.cpu0.itb.hits                                0                       # DTB hits
system.cpu0.itb.misses                              0                       # DTB misses
system.cpu0.itb.accesses                            0                       # DTB accesses
system.cpu0.workload.num_syscalls                 143                       # Number of system calls
system.cpu0.numCycles                          107698                       # number of cpu cycles simulated
system.cpu0.numWorkItemsStarted                     0                       # number of work items this cpu started
system.cpu0.numWorkItemsCompleted                   0                       # number of work items this cpu completed
system.cpu0.fetch.icacheStallCycles             15353                       # Number of cycles fetch is stalled on an Icache miss
system.cpu0.fetch.Insts                         54858                       # Number of instructions fetch has processed
system.cpu0.fetch.Branches                       9159                       # Number of branches that fetch encountered
system.cpu0.fetch.predictedBranches              3682                       # Number of branches that fetch has predicted taken
system.cpu0.fetch.Cycles                        51389                       # Number of cycles fetch has run and was not squashing or blocked
system.cpu0.fetch.SquashCycles                   2761                       # Number of cycles fetch has spent squashing
system.cpu0.fetch.MiscStallCycles                 256                       # Number of cycles fetch has spent waiting on interrupts, or bad addresses, or out of MSHRs
system.cpu0.fetch.PendingTrapStallCycles          108                       # Number of stall cycles due to pending traps
system.cpu0.fetch.IcacheWaitRetryStallCycles          430                       # Number of stall cycles due to full MSHR
system.cpu0.fetch.CacheLines                    17148                       # Number of cache lines fetched
system.cpu0.fetch.IcacheSquashes                  361                       # Number of outstanding Icache misses that were squashed
system.cpu0.fetch.rateDist::samples             68916                       # Number of instructions fetched each cycle (Total)
system.cpu0.fetch.rateDist::mean             0.932918                       # Number of instructions fetched each cycle (Total)
system.cpu0.fetch.rateDist::stdev            1.237946                       # Number of instructions fetched each cycle (Total)
system.cpu0.fetch.rateDist::underflows              0      0.00%      0.00% # Number of instructions fetched each cycle (Total)
system.cpu0.fetch.rateDist::0                   39339     57.08%     57.08% # Number of instructions fetched each cycle (Total)
system.cpu0.fetch.rateDist::1                   10795     15.66%     72.75% # Number of instructions fetched each cycle (Total)
system.cpu0.fetch.rateDist::2                    2848      4.13%     76.88% # Number of instructions fetched each cycle (Total)
system.cpu0.fetch.rateDist::3                   15934     23.12%    100.00% # Number of instructions fetched each cycle (Total)
system.cpu0.fetch.rateDist::overflows               0      0.00%    100.00% # Number of instructions fetched each cycle (Total)
system.cpu0.fetch.rateDist::min_value               0                       # Number of instructions fetched each cycle (Total)
system.cpu0.fetch.rateDist::max_value               3                       # Number of instructions fetched each cycle (Total)
system.cpu0.fetch.rateDist::total               68916                       # Number of instructions fetched each cycle (Total)
system.cpu0.fetch.branchRate                 0.085043                       # Number of branch fetches per cycle
system.cpu0.fetch.rate                       0.509369                       # Number of inst fetches per cycle
system.cpu0.decode.IdleCycles                   13867                       # Number of cycles decode is idle
system.cpu0.decode.BlockedCycles                28167                       # Number of cycles decode is blocked
system.cpu0.decode.RunCycles                    24803                       # Number of cycles decode is running
system.cpu0.decode.UnblockCycles                 1020                       # Number of cycles decode is unblocking
system.cpu0.decode.SquashCycles                  1059                       # Number of cycles decode is squashing
system.cpu0.decode.BranchResolved                 922                       # Number of times decode resolved a branch
system.cpu0.decode.BranchMispred                  345                       # Number of times decode detected a branch misprediction
system.cpu0.decode.DecodedInsts                 54018                       # Number of instructions handled by decode
system.cpu0.decode.SquashedInsts                 4656                       # Number of squashed instructions handled by decode
system.cpu0.rename.SquashCycles                  1059                       # Number of cycles rename is squashing
system.cpu0.rename.IdleCycles                   17465                       # Number of cycles rename is idle
system.cpu0.rename.BlockCycles                   3144                       # Number of cycles rename is blocking
system.cpu0.rename.serializeStallCycles          7701                       # count of cycles rename stalled for serializing inst
system.cpu0.rename.RunCycles                    22188                       # Number of cycles rename is running
system.cpu0.rename.UnblockCycles                17359                       # Number of cycles rename is unblocking
system.cpu0.rename.RenamedInsts                 50375                       # Number of instructions processed by rename
system.cpu0.rename.SquashedInsts                 1705                       # Number of squashed instructions processed by rename
system.cpu0.rename.ROBFullEvents                   89                       # Number of times rename has blocked due to ROB full
system.cpu0.rename.IQFullEvents                    11                       # Number of times rename has blocked due to IQ full
system.cpu0.rename.LQFullEvents                     1                       # Number of times rename has blocked due to LQ full
system.cpu0.rename.SQFullEvents                 16753                       # Number of times rename has blocked due to SQ full
system.cpu0.rename.RenamedOperands              57400                       # Number of destination operands rename has renamed
system.cpu0.rename.RenameLookups               242120                       # Number of register rename lookups that rename has made
system.cpu0.rename.int_rename_lookups           68366                       # Number of integer rename lookups
system.cpu0.rename.fp_rename_lookups               22                       # Number of floating rename lookups
system.cpu0.rename.CommittedMaps                45944                       # Number of HB maps that are committed
system.cpu0.rename.UndoneMaps                   11456                       # Number of HB maps that are undone due to squashing
system.cpu0.rename.serializingInsts               112                       # count of serializing insts renamed
system.cpu0.rename.tempSerializingInsts           110                       # count of temporary serializing insts renamed
system.cpu0.rename.skidInsts                     2518                       # count of insts added to the skid buffer
system.cpu0.memDep0.insertedLoads                7634                       # Number of loads inserted to the mem dependence unit.
system.cpu0.memDep0.insertedStores               7647                       # Number of stores inserted to the mem dependence unit.
system.cpu0.memDep0.conflictingLoads              234                       # Number of conflicting loads.
system.cpu0.memDep0.conflictingStores             103                       # Number of conflicting stores.
system.cpu0.iq.iqInstsAdded                     48500                       # Number of instructions added to the IQ (excludes non-spec)
system.cpu0.iq.iqNonSpecInstsAdded                245                       # Number of non-speculative instructions added to the IQ
system.cpu0.iq.iqInstsIssued                    45358                       # Number of instructions issued
system.cpu0.iq.iqSquashedInstsIssued              456                       # Number of squashed instructions issued
system.cpu0.iq.iqSquashedInstsExamined           8913                       # Number of squashed instructions iterated over during squash; mainly for profiling
system.cpu0.iq.iqSquashedOperandsExamined        22110                       # Number of squashed operands that are examined and possibly removed from graph
system.cpu0.iq.iqSquashedNonSpecRemoved            45                       # Number of squashed non-spec instructions that were removed
system.cpu0.iq.issued_per_cycle::samples        68916                       # Number of insts issued each cycle
system.cpu0.iq.issued_per_cycle::mean        0.658164                       # Number of insts issued each cycle
system.cpu0.iq.issued_per_cycle::stdev       1.039446                       # Number of insts issued each cycle
system.cpu0.iq.issued_per_cycle::underflows            0      0.00%      0.00% # Number of insts issued each cycle
system.cpu0.iq.issued_per_cycle::0              45525     66.06%     66.06% # Number of insts issued each cycle
system.cpu0.iq.issued_per_cycle::1               8430     12.23%     78.29% # Number of insts issued each cycle
system.cpu0.iq.issued_per_cycle::2               8456     12.27%     90.56% # Number of insts issued each cycle
system.cpu0.iq.issued_per_cycle::3               6007      8.72%     99.28% # Number of insts issued each cycle
system.cpu0.iq.issued_per_cycle::4                495      0.72%    100.00% # Number of insts issued each cycle
system.cpu0.iq.issued_per_cycle::5                  3      0.00%    100.00% # Number of insts issued each cycle
system.cpu0.iq.issued_per_cycle::6                  0      0.00%    100.00% # Number of insts issued each cycle
system.cpu0.iq.issued_per_cycle::7                  0      0.00%    100.00% # Number of insts issued each cycle
system.cpu0.iq.issued_per_cycle::8                  0      0.00%    100.00% # Number of insts issued each cycle
system.cpu0.iq.issued_per_cycle::overflows            0      0.00%    100.00% # Number of insts issued each cycle
system.cpu0.iq.issued_per_cycle::min_value            0                       # Number of insts issued each cycle
system.cpu0.iq.issued_per_cycle::max_value            5                       # Number of insts issued each cycle
system.cpu0.iq.issued_per_cycle::total          68916                       # Number of insts issued each cycle
system.cpu0.iq.fu_full::No_OpClass                  0      0.00%      0.00% # attempts to use FU when none available
system.cpu0.iq.fu_full::IntAlu                   2572     30.58%     30.58% # attempts to use FU when none available
system.cpu0.iq.fu_full::IntMult                    57      0.68%     31.26% # attempts to use FU when none available
system.cpu0.iq.fu_full::IntDiv                      0      0.00%     31.26% # attempts to use FU when none available
system.cpu0.iq.fu_full::FloatAdd                    0      0.00%     31.26% # attempts to use FU when none available
system.cpu0.iq.fu_full::FloatCmp                    0      0.00%     31.26% # attempts to use FU when none available
system.cpu0.iq.fu_full::FloatCvt                    0      0.00%     31.26% # attempts to use FU when none available
system.cpu0.iq.fu_full::FloatMult                   0      0.00%     31.26% # attempts to use FU when none available
system.cpu0.iq.fu_full::FloatDiv                    0      0.00%     31.26% # attempts to use FU when none available
system.cpu0.iq.fu_full::FloatSqrt                   0      0.00%     31.26% # attempts to use FU when none available
system.cpu0.iq.fu_full::SimdAdd                     0      0.00%     31.26% # attempts to use FU when none available
system.cpu0.iq.fu_full::SimdAddAcc                  0      0.00%     31.26% # attempts to use FU when none available
system.cpu0.iq.fu_full::SimdAlu                     0      0.00%     31.26% # attempts to use FU when none available
system.cpu0.iq.fu_full::SimdCmp                     0      0.00%     31.26% # attempts to use FU when none available
system.cpu0.iq.fu_full::SimdCvt                     0      0.00%     31.26% # attempts to use FU when none available
system.cpu0.iq.fu_full::SimdMisc                    0      0.00%     31.26% # attempts to use FU when none available
system.cpu0.iq.fu_full::SimdMult                    0      0.00%     31.26% # attempts to use FU when none available
system.cpu0.iq.fu_full::SimdMultAcc                 0      0.00%     31.26% # attempts to use FU when none available
system.cpu0.iq.fu_full::SimdShift                   0      0.00%     31.26% # attempts to use FU when none available
system.cpu0.iq.fu_full::SimdShiftAcc                0      0.00%     31.26% # attempts to use FU when none available
system.cpu0.iq.fu_full::SimdSqrt                    0      0.00%     31.26% # attempts to use FU when none available
system.cpu0.iq.fu_full::SimdFloatAdd                0      0.00%     31.26% # attempts to use FU when none available
system.cpu0.iq.fu_full::SimdFloatAlu                0      0.00%     31.26% # attempts to use FU when none available
system.cpu0.iq.fu_full::SimdFloatCmp                0      0.00%     31.26% # attempts to use FU when none available
system.cpu0.iq.fu_full::SimdFloatCvt                0      0.00%     31.26% # attempts to use FU when none available
system.cpu0.iq.fu_full::SimdFloatDiv                0      0.00%     31.26% # attempts to use FU when none available
system.cpu0.iq.fu_full::SimdFloatMisc               0      0.00%     31.26% # attempts to use FU when none available
system.cpu0.iq.fu_full::SimdFloatMult               0      0.00%     31.26% # attempts to use FU when none available
system.cpu0.iq.fu_full::SimdFloatMultAcc            0      0.00%     31.26% # attempts to use FU when none available
system.cpu0.iq.fu_full::SimdFloatSqrt               0      0.00%     31.26% # attempts to use FU when none available
system.cpu0.iq.fu_full::MemRead                  2395     28.48%     59.74% # attempts to use FU when none available
system.cpu0.iq.fu_full::MemWrite                 3386     40.26%    100.00% # attempts to use FU when none available
system.cpu0.iq.fu_full::IprAccess                   0      0.00%    100.00% # attempts to use FU when none available
system.cpu0.iq.fu_full::InstPrefetch                0      0.00%    100.00% # attempts to use FU when none available
system.cpu0.iq.FU_type_0::No_OpClass                0      0.00%      0.00% # Type of FU issued
system.cpu0.iq.FU_type_0::IntAlu                28863     63.63%     63.63% # Type of FU issued
system.cpu0.iq.FU_type_0::IntMult                2113      4.66%     68.29% # Type of FU issued
system.cpu0.iq.FU_type_0::IntDiv                    0      0.00%     68.29% # Type of FU issued
system.cpu0.iq.FU_type_0::FloatAdd                  0      0.00%     68.29% # Type of FU issued
system.cpu0.iq.FU_type_0::FloatCmp                  0      0.00%     68.29% # Type of FU issued
system.cpu0.iq.FU_type_0::FloatCvt                  0      0.00%     68.29% # Type of FU issued
system.cpu0.iq.FU_type_0::FloatMult                 0      0.00%     68.29% # Type of FU issued
system.cpu0.iq.FU_type_0::FloatDiv                  0      0.00%     68.29% # Type of FU issued
system.cpu0.iq.FU_type_0::FloatSqrt                 0      0.00%     68.29% # Type of FU issued
system.cpu0.iq.FU_type_0::SimdAdd                   0      0.00%     68.29% # Type of FU issued
system.cpu0.iq.FU_type_0::SimdAddAcc                0      0.00%     68.29% # Type of FU issued
system.cpu0.iq.FU_type_0::SimdAlu                   0      0.00%     68.29% # Type of FU issued
system.cpu0.iq.FU_type_0::SimdCmp                   0      0.00%     68.29% # Type of FU issued
system.cpu0.iq.FU_type_0::SimdCvt                   0      0.00%     68.29% # Type of FU issued
system.cpu0.iq.FU_type_0::SimdMisc                  0      0.00%     68.29% # Type of FU issued
system.cpu0.iq.FU_type_0::SimdMult                  0      0.00%     68.29% # Type of FU issued
system.cpu0.iq.FU_type_0::SimdMultAcc               0      0.00%     68.29% # Type of FU issued
system.cpu0.iq.FU_type_0::SimdShift                 0      0.00%     68.29% # Type of FU issued
system.cpu0.iq.FU_type_0::SimdShiftAcc              0      0.00%     68.29% # Type of FU issued
system.cpu0.iq.FU_type_0::SimdSqrt                  0      0.00%     68.29% # Type of FU issued
system.cpu0.iq.FU_type_0::SimdFloatAdd              0      0.00%     68.29% # Type of FU issued
system.cpu0.iq.FU_type_0::SimdFloatAlu              0      0.00%     68.29% # Type of FU issued
system.cpu0.iq.FU_type_0::SimdFloatCmp              0      0.00%     68.29% # Type of FU issued
system.cpu0.iq.FU_type_0::SimdFloatCvt              0      0.00%     68.29% # Type of FU issued
system.cpu0.iq.FU_type_0::SimdFloatDiv              0      0.00%     68.29% # Type of FU issued
system.cpu0.iq.FU_type_0::SimdFloatMisc             3      0.01%     68.30% # Type of FU issued
system.cpu0.iq.FU_type_0::SimdFloatMult             0      0.00%     68.30% # Type of FU issued
system.cpu0.iq.FU_type_0::SimdFloatMultAcc            0      0.00%     68.30% # Type of FU issued
system.cpu0.iq.FU_type_0::SimdFloatSqrt             0      0.00%     68.30% # Type of FU issued
system.cpu0.iq.FU_type_0::MemRead                7251     15.99%     84.29% # Type of FU issued
system.cpu0.iq.FU_type_0::MemWrite               7128     15.71%    100.00% # Type of FU issued
system.cpu0.iq.FU_type_0::IprAccess                 0      0.00%    100.00% # Type of FU issued
system.cpu0.iq.FU_type_0::InstPrefetch              0      0.00%    100.00% # Type of FU issued
system.cpu0.iq.FU_type_0::total                 45358                       # Type of FU issued
system.cpu0.iq.rate                          0.421159                       # Inst issue rate
system.cpu0.iq.fu_busy_cnt                       8410                       # FU busy when requested
system.cpu0.iq.fu_busy_rate                  0.185414                       # FU busy rate (busy events/executed inst)
system.cpu0.iq.int_inst_queue_reads            168422                       # Number of integer instruction queue reads
system.cpu0.iq.int_inst_queue_writes            57646                       # Number of integer instruction queue writes
system.cpu0.iq.int_inst_queue_wakeup_accesses        43161                       # Number of integer instruction queue wakeup accesses
system.cpu0.iq.fp_inst_queue_reads                 76                       # Number of floating instruction queue reads
system.cpu0.iq.fp_inst_queue_writes                28                       # Number of floating instruction queue writes
system.cpu0.iq.fp_inst_queue_wakeup_accesses           28                       # Number of floating instruction queue wakeup accesses
system.cpu0.iq.int_alu_accesses                 53720                       # Number of integer alu accesses
system.cpu0.iq.fp_alu_accesses                     48                       # Number of floating point alu accesses
system.cpu0.iew.lsq.thread0.forwLoads              52                       # Number of loads that had data forwarded from stores
system.cpu0.iew.lsq.thread0.invAddrLoads            0                       # Number of loads ignored due to an invalid address
system.cpu0.iew.lsq.thread0.squashedLoads         1943                       # Number of loads squashed
system.cpu0.iew.lsq.thread0.ignoredResponses            1                       # Number of memory responses ignored because the instruction is squashed
system.cpu0.iew.lsq.thread0.memOrderViolation           17                       # Number of memory ordering violations
system.cpu0.iew.lsq.thread0.squashedStores          980                       # Number of stores squashed
system.cpu0.iew.lsq.thread0.invAddrSwpfs            0                       # Number of software prefetches ignored due to an invalid address
system.cpu0.iew.lsq.thread0.blockedLoads            0                       # Number of blocked loads due to partial load-store forwarding
system.cpu0.iew.lsq.thread0.rescheduledLoads            9                       # Number of loads that were rescheduled
system.cpu0.iew.lsq.thread0.cacheBlocked          207                       # Number of times an access to memory failed due to the cache being blocked
system.cpu0.iew.iewIdleCycles                       0                       # Number of cycles IEW is idle
system.cpu0.iew.iewSquashCycles                  1059                       # Number of cycles IEW is squashing
system.cpu0.iew.iewBlockCycles                    574                       # Number of cycles IEW is blocking
system.cpu0.iew.iewUnblockCycles                  758                       # Number of cycles IEW is unblocking
system.cpu0.iew.iewDispatchedInsts              48760                       # Number of instructions dispatched to IQ
system.cpu0.iew.iewDispSquashedInsts                0                       # Number of squashed instructions skipped by dispatch
system.cpu0.iew.iewDispLoadInsts                 7634                       # Number of dispatched load instructions
system.cpu0.iew.iewDispStoreInsts                7647                       # Number of dispatched store instructions
system.cpu0.iew.iewDispNonSpecInsts               108                       # Number of dispatched non-speculative instructions
system.cpu0.iew.iewIQFullEvents                     4                       # Number of times the IQ has become full, causing a stall
system.cpu0.iew.iewLSQFullEvents                  753                       # Number of times the LSQ has become full, causing a stall
system.cpu0.iew.memOrderViolationEvents            17                       # Number of memory order violations
system.cpu0.iew.predictedTakenIncorrect            99                       # Number of branches that were predicted taken incorrectly
system.cpu0.iew.predictedNotTakenIncorrect          977                       # Number of branches that were predicted not taken incorrectly
system.cpu0.iew.branchMispredicts                1076                       # Number of branch mispredicts detected at execute
system.cpu0.iew.iewExecutedInsts                43811                       # Number of executed instructions
system.cpu0.iew.iewExecLoadInsts                 6728                       # Number of load instructions executed
system.cpu0.iew.iewExecSquashedInsts             1547                       # Number of squashed instructions skipped in execute
system.cpu0.iew.exec_swp                            0                       # number of swp insts executed
system.cpu0.iew.exec_nop                           15                       # number of nop insts executed
system.cpu0.iew.exec_refs                       13674                       # number of memory reference insts executed
system.cpu0.iew.exec_branches                    5715                       # Number of branches executed
system.cpu0.iew.exec_stores                      6946                       # Number of stores executed
system.cpu0.iew.exec_rate                    0.406795                       # Inst execution rate
system.cpu0.iew.wb_sent                         43330                       # cumulative count of insts sent to commit
system.cpu0.iew.wb_count                        43189                       # cumulative count of insts written-back
system.cpu0.iew.wb_producers                    22626                       # num instructions producing a value
system.cpu0.iew.wb_consumers                    40674                       # num instructions consuming a value
system.cpu0.iew.wb_penalized                        0                       # number of instrctions required to write to 'other' IQ
system.cpu0.iew.wb_rate                      0.401020                       # insts written-back per cycle
system.cpu0.iew.wb_fanout                    0.556277                       # average fanout of values written-back
system.cpu0.iew.wb_penalized_rate                   0                       # fraction of instructions written-back that wrote to 'other' IQ
system.cpu0.commit.commitSquashedInsts           7288                       # The number of squashed insts skipped by commit
system.cpu0.commit.commitNonSpecStalls            200                       # The number of times commit has been forced to stall to communicate backwards
system.cpu0.commit.branchMispredicts             1018                       # The number of times a branch was mispredicted
system.cpu0.commit.committed_per_cycle::samples        67386                       # Number of insts commited each cycle
system.cpu0.commit.committed_per_cycle::mean     0.591102                       # Number of insts commited each cycle
system.cpu0.commit.committed_per_cycle::stdev     1.360207                       # Number of insts commited each cycle
system.cpu0.commit.committed_per_cycle::underflows            0      0.00%      0.00% # Number of insts commited each cycle
system.cpu0.commit.committed_per_cycle::0        50004     74.21%     74.21% # Number of insts commited each cycle
system.cpu0.commit.committed_per_cycle::1         8415     12.49%     86.69% # Number of insts commited each cycle
system.cpu0.commit.committed_per_cycle::2         3778      5.61%     92.30% # Number of insts commited each cycle
[...]
system.cpu7.icache.demand_miss_latency::total      4755998                       # number of demand (read+write) miss cycles
system.cpu7.icache.overall_miss_latency::cpu7.inst      4755998                       # number of overall miss cycles
system.cpu7.icache.overall_miss_latency::total      4755998                       # number of overall miss cycles
system.cpu7.icache.ReadReq_accesses::cpu7.inst         5894                       # number of ReadReq accesses(hits+misses)
system.cpu7.icache.ReadReq_accesses::total         5894                       # number of ReadReq accesses(hits+misses)
system.cpu7.icache.demand_accesses::cpu7.inst         5894                       # number of demand (read+write) accesses
system.cpu7.icache.demand_accesses::total         5894                       # number of demand (read+write) accesses
system.cpu7.icache.overall_accesses::cpu7.inst         5894                       # number of overall (read+write) accesses
system.cpu7.icache.overall_accesses::total         5894                       # number of overall (read+write) accesses
system.cpu7.icache.ReadReq_miss_rate::cpu7.inst     0.011367                       # miss rate for ReadReq accesses
system.cpu7.icache.ReadReq_miss_rate::total     0.011367                       # miss rate for ReadReq accesses
system.cpu7.icache.demand_miss_rate::cpu7.inst     0.011367                       # miss rate for demand accesses
system.cpu7.icache.demand_miss_rate::total     0.011367                       # miss rate for demand accesses
system.cpu7.icache.overall_miss_rate::cpu7.inst     0.011367                       # miss rate for overall accesses
system.cpu7.icache.overall_miss_rate::total     0.011367                       # miss rate for overall accesses
system.cpu7.icache.ReadReq_avg_miss_latency::cpu7.inst 70985.044776                       # average ReadReq miss latency
system.cpu7.icache.ReadReq_avg_miss_latency::total 70985.044776                       # average ReadReq miss latency
system.cpu7.icache.demand_avg_miss_latency::cpu7.inst 70985.044776                       # average overall miss latency
system.cpu7.icache.demand_avg_miss_latency::total 70985.044776                       # average overall miss latency
system.cpu7.icache.overall_avg_miss_latency::cpu7.inst 70985.044776                       # average overall miss latency
system.cpu7.icache.overall_avg_miss_latency::total 70985.044776                       # average overall miss latency
system.cpu7.icache.blocked_cycles::no_mshrs         1338                       # number of cycles access was blocked
system.cpu7.icache.blocked_cycles::no_targets            0                       # number of cycles access was blocked
system.cpu7.icache.blocked::no_mshrs               13                       # number of cycles access was blocked
system.cpu7.icache.blocked::no_targets              0                       # number of cycles access was blocked
system.cpu7.icache.avg_blocked_cycles::no_mshrs   102.923077                       # average number of cycles each access was blocked
system.cpu7.icache.avg_blocked_cycles::no_targets          nan                       # average number of cycles each access was blocked
system.cpu7.icache.fast_writes                      0                       # number of fast writes performed
system.cpu7.icache.cache_copies                     0                       # number of cache copies performed
system.cpu7.icache.ReadReq_mshr_hits::cpu7.inst           14                       # number of ReadReq MSHR hits
system.cpu7.icache.ReadReq_mshr_hits::total           14                       # number of ReadReq MSHR hits
system.cpu7.icache.demand_mshr_hits::cpu7.inst           14                       # number of demand (read+write) MSHR hits
system.cpu7.icache.demand_mshr_hits::total           14                       # number of demand (read+write) MSHR hits
system.cpu7.icache.overall_mshr_hits::cpu7.inst           14                       # number of overall MSHR hits
system.cpu7.icache.overall_mshr_hits::total           14                       # number of overall MSHR hits
system.cpu7.icache.ReadReq_mshr_misses::cpu7.inst           53                       # number of ReadReq MSHR misses
system.cpu7.icache.ReadReq_mshr_misses::total           53                       # number of ReadReq MSHR misses
system.cpu7.icache.demand_mshr_misses::cpu7.inst           53                       # number of demand (read+write) MSHR misses
system.cpu7.icache.demand_mshr_misses::total           53                       # number of demand (read+write) MSHR misses
system.cpu7.icache.overall_mshr_misses::cpu7.inst           53                       # number of overall MSHR misses
system.cpu7.icache.overall_mshr_misses::total           53                       # number of overall MSHR misses
system.cpu7.icache.ReadReq_mshr_miss_latency::cpu7.inst      4034248                       # number of ReadReq MSHR miss cycles
system.cpu7.icache.ReadReq_mshr_miss_latency::total      4034248                       # number of ReadReq MSHR miss cycles
system.cpu7.icache.demand_mshr_miss_latency::cpu7.inst      4034248                       # number of demand (read+write) MSHR miss cycles
system.cpu7.icache.demand_mshr_miss_latency::total      4034248                       # number of demand (read+write) MSHR miss cycles
system.cpu7.icache.overall_mshr_miss_latency::cpu7.inst      4034248                       # number of overall MSHR miss cycles
system.cpu7.icache.overall_mshr_miss_latency::total      4034248                       # number of overall MSHR miss cycles
system.cpu7.icache.ReadReq_mshr_miss_rate::cpu7.inst     0.008992                       # mshr miss rate for ReadReq accesses
system.cpu7.icache.ReadReq_mshr_miss_rate::total     0.008992                       # mshr miss rate for ReadReq accesses
system.cpu7.icache.demand_mshr_miss_rate::cpu7.inst     0.008992                       # mshr miss rate for demand accesses
system.cpu7.icache.demand_mshr_miss_rate::total     0.008992                       # mshr miss rate for demand accesses
system.cpu7.icache.overall_mshr_miss_rate::cpu7.inst     0.008992                       # mshr miss rate for overall accesses
system.cpu7.icache.overall_mshr_miss_rate::total     0.008992                       # mshr miss rate for overall accesses
system.cpu7.icache.ReadReq_avg_mshr_miss_latency::cpu7.inst 76117.886792                       # average ReadReq mshr miss latency
system.cpu7.icache.ReadReq_avg_mshr_miss_latency::total 76117.886792                       # average ReadReq mshr miss latency
system.cpu7.icache.demand_avg_mshr_miss_latency::cpu7.inst 76117.886792                       # average overall mshr miss latency
system.cpu7.icache.demand_avg_mshr_miss_latency::total 76117.886792                       # average overall mshr miss latency
system.cpu7.icache.overall_avg_mshr_miss_latency::cpu7.inst 76117.886792                       # average overall mshr miss latency
system.cpu7.icache.overall_avg_mshr_miss_latency::total 76117.886792                       # average overall mshr miss latency
system.cpu7.icache.no_allocate_misses               0                       # Number of misses that were no-allocate
system.membus.trans_dist::ReadReq                1641                       # Transaction distribution
system.membus.trans_dist::ReadResp               1640                       # Transaction distribution
system.membus.trans_dist::Writeback                17                       # Transaction distribution
system.membus.trans_dist::UpgradeReq               14                       # Transaction distribution
system.membus.trans_dist::SCUpgradeReq             23                       # Transaction distribution
system.membus.trans_dist::UpgradeResp              37                       # Transaction distribution
system.membus.trans_dist::ReadExReq               329                       # Transaction distribution
system.membus.trans_dist::ReadExResp              329                       # Transaction distribution
system.membus.pkt_count_system.cpu0.icache.mem_side::system.mem_ctrls.port         1235                       # Packet count per connected master and slave (bytes)
system.membus.pkt_count_system.cpu0.dcache.mem_side::system.mem_ctrls.port          859                       # Packet count per connected master and slave (bytes)
system.membus.pkt_count_system.cpu1.icache.mem_side::system.mem_ctrls.port          100                       # Packet count per connected master and slave (bytes)
system.membus.pkt_count_system.cpu1.dcache.mem_side::system.mem_ctrls.port          104                       # Packet count per connected master and slave (bytes)
system.membus.pkt_count_system.cpu2.icache.mem_side::system.mem_ctrls.port          104                       # Packet count per connected master and slave (bytes)
system.membus.pkt_count_system.cpu2.dcache.mem_side::system.mem_ctrls.port          103                       # Packet count per connected master and slave (bytes)
system.membus.pkt_count_system.cpu3.icache.mem_side::system.mem_ctrls.port          106                       # Packet count per connected master and slave (bytes)
system.membus.pkt_count_system.cpu3.dcache.mem_side::system.mem_ctrls.port          104                       # Packet count per connected master and slave (bytes)
system.membus.pkt_count_system.cpu4.icache.mem_side::system.mem_ctrls.port          104                       # Packet count per connected master and slave (bytes)
system.membus.pkt_count_system.cpu4.dcache.mem_side::system.mem_ctrls.port          107                       # Packet count per connected master and slave (bytes)
system.membus.pkt_count_system.cpu5.icache.mem_side::system.mem_ctrls.port          106                       # Packet count per connected master and slave (bytes)
system.membus.pkt_count_system.cpu5.dcache.mem_side::system.mem_ctrls.port          100                       # Packet count per connected master and slave (bytes)
system.membus.pkt_count_system.cpu6.icache.mem_side::system.mem_ctrls.port          110                       # Packet count per connected master and slave (bytes)
system.membus.pkt_count_system.cpu6.dcache.mem_side::system.mem_ctrls.port           99                       # Packet count per connected master and slave (bytes)
system.membus.pkt_count_system.cpu7.icache.mem_side::system.mem_ctrls.port          106                       # Packet count per connected master and slave (bytes)
system.membus.pkt_count_system.cpu7.dcache.mem_side::system.mem_ctrls.port           99                       # Packet count per connected master and slave (bytes)
system.membus.pkt_count::total                   3546                       # Packet count per connected master and slave (bytes)
system.membus.pkt_size_system.cpu0.icache.mem_side::system.mem_ctrls.port        39488                       # Cumulative packet size per connected master and slave (bytes)
system.membus.pkt_size_system.cpu0.dcache.mem_side::system.mem_ctrls.port        27392                       # Cumulative packet size per connected master and slave (bytes)
system.membus.pkt_size_system.cpu1.icache.mem_side::system.mem_ctrls.port         3200                       # Cumulative packet size per connected master and slave (bytes)
system.membus.pkt_size_system.cpu1.dcache.mem_side::system.mem_ctrls.port         1088                       # Cumulative packet size per connected master and slave (bytes)
system.membus.pkt_size_system.cpu2.icache.mem_side::system.mem_ctrls.port         3328                       # Cumulative packet size per connected master and slave (bytes)
system.membus.pkt_size_system.cpu2.dcache.mem_side::system.mem_ctrls.port         1152                       # Cumulative packet size per connected master and slave (bytes)
system.membus.pkt_size_system.cpu3.icache.mem_side::system.mem_ctrls.port         3392                       # Cumulative packet size per connected master and slave (bytes)
system.membus.pkt_size_system.cpu3.dcache.mem_side::system.mem_ctrls.port         1088                       # Cumulative packet size per connected master and slave (bytes)
system.membus.pkt_size_system.cpu4.icache.mem_side::system.mem_ctrls.port         3328                       # Cumulative packet size per connected master and slave (bytes)
system.membus.pkt_size_system.cpu4.dcache.mem_side::system.mem_ctrls.port         1152                       # Cumulative packet size per connected master and slave (bytes)
system.membus.pkt_size_system.cpu5.icache.mem_side::system.mem_ctrls.port         3392                       # Cumulative packet size per connected master and slave (bytes)
system.membus.pkt_size_system.cpu5.dcache.mem_side::system.mem_ctrls.port         1088                       # Cumulative packet size per connected master and slave (bytes)
system.membus.pkt_size_system.cpu6.icache.mem_side::system.mem_ctrls.port         3520                       # Cumulative packet size per connected master and slave (bytes)
system.membus.pkt_size_system.cpu6.dcache.mem_side::system.mem_ctrls.port         1024                       # Cumulative packet size per connected master and slave (bytes)
system.membus.pkt_size_system.cpu7.icache.mem_side::system.mem_ctrls.port         3392                       # Cumulative packet size per connected master and slave (bytes)
system.membus.pkt_size_system.cpu7.dcache.mem_side::system.mem_ctrls.port         1088                       # Cumulative packet size per connected master and slave (bytes)
system.membus.pkt_size::total                   98112                       # Cumulative packet size per connected master and slave (bytes)
system.membus.snoops                              484                       # Total snoops (count)
system.membus.snoop_fanout::samples              2024                       # Request fanout histogram
system.membus.snoop_fanout::mean                   15                       # Request fanout histogram
system.membus.snoop_fanout::stdev                   0                       # Request fanout histogram
system.membus.snoop_fanout::underflows              0      0.00%      0.00% # Request fanout histogram
system.membus.snoop_fanout::0                       0      0.00%      0.00% # Request fanout histogram
system.membus.snoop_fanout::1                       0      0.00%      0.00% # Request fanout histogram
system.membus.snoop_fanout::2                       0      0.00%      0.00% # Request fanout histogram
system.membus.snoop_fanout::3                       0      0.00%      0.00% # Request fanout histogram
system.membus.snoop_fanout::4                       0      0.00%      0.00% # Request fanout histogram
system.membus.snoop_fanout::5                       0      0.00%      0.00% # Request fanout histogram
system.membus.snoop_fanout::6                       0      0.00%      0.00% # Request fanout histogram
system.membus.snoop_fanout::7                       0      0.00%      0.00% # Request fanout histogram
system.membus.snoop_fanout::8                       0      0.00%      0.00% # Request fanout histogram
system.membus.snoop_fanout::9                       0      0.00%      0.00% # Request fanout histogram
system.membus.snoop_fanout::10                      0      0.00%      0.00% # Request fanout histogram
system.membus.snoop_fanout::11                      0      0.00%      0.00% # Request fanout histogram
system.membus.snoop_fanout::12                      0      0.00%      0.00% # Request fanout histogram
system.membus.snoop_fanout::13                      0      0.00%      0.00% # Request fanout histogram
system.membus.snoop_fanout::14                      0      0.00%      0.00% # Request fanout histogram
system.membus.snoop_fanout::15                   2024    100.00%    100.00% # Request fanout histogram
system.membus.snoop_fanout::16                      0      0.00%    100.00% # Request fanout histogram
system.membus.snoop_fanout::overflows               0      0.00%    100.00% # Request fanout histogram
system.membus.snoop_fanout::min_value              15                       # Request fanout histogram
system.membus.snoop_fanout::max_value              15                       # Request fanout histogram
system.membus.snoop_fanout::total                2024                       # Request fanout histogram
system.membus.reqLayer0.occupancy             2556498                       # Layer occupancy (ticks)
system.membus.reqLayer0.utilization               4.7                       # Layer utilization (%)
system.membus.respLayer1.occupancy            3286250                       # Layer occupancy (ticks)
system.membus.respLayer1.utilization              6.1                       # Layer utilization (%)
system.membus.respLayer2.occupancy            2242996                       # Layer occupancy (ticks)
system.membus.respLayer2.utilization              4.2                       # Layer utilization (%)
system.membus.respLayer5.occupancy             270750                       # Layer occupancy (ticks)
system.membus.respLayer5.utilization              0.5                       # Layer utilization (%)
system.membus.respLayer6.occupancy             432488                       # Layer occupancy (ticks)
system.membus.respLayer6.utilization              0.8                       # Layer utilization (%)
system.membus.respLayer9.occupancy             281750                       # Layer occupancy (ticks)
system.membus.respLayer9.utilization              0.5                       # Layer utilization (%)
system.membus.respLayer10.occupancy            415748                       # Layer occupancy (ticks)
system.membus.respLayer10.utilization             0.8                       # Layer utilization (%)
system.membus.respLayer13.occupancy            282250                       # Layer occupancy (ticks)
system.membus.respLayer13.utilization             0.5                       # Layer utilization (%)
system.membus.respLayer14.occupancy            431488                       # Layer occupancy (ticks)
system.membus.respLayer14.utilization             0.8                       # Layer utilization (%)
system.membus.respLayer17.occupancy            280000                       # Layer occupancy (ticks)
system.membus.respLayer17.utilization             0.5                       # Layer utilization (%)
system.membus.respLayer18.occupancy            440493                       # Layer occupancy (ticks)
system.membus.respLayer18.utilization             0.8                       # Layer utilization (%)
system.membus.respLayer21.occupancy            283250                       # Layer occupancy (ticks)
system.membus.respLayer21.utilization             0.5                       # Layer utilization (%)
system.membus.respLayer22.occupancy            409494                       # Layer occupancy (ticks)
system.membus.respLayer22.utilization             0.8                       # Layer utilization (%)
system.membus.respLayer25.occupancy            295000                       # Layer occupancy (ticks)
system.membus.respLayer25.utilization             0.5                       # Layer utilization (%)
system.membus.respLayer26.occupancy            406249                       # Layer occupancy (ticks)
system.membus.respLayer26.utilization             0.8                       # Layer utilization (%)
system.membus.respLayer29.occupancy            285250                       # Layer occupancy (ticks)
system.membus.respLayer29.utilization             0.5                       # Layer utilization (%)
system.membus.respLayer30.occupancy            397250                       # Layer occupancy (ticks)
system.membus.respLayer30.utilization             0.7                       # Layer utilization (%)

---------- End Simulation Statistics   ----------
