
---------- Begin Simulation Statistics ----------
sim_seconds                                  0.000291                       # Number of seconds simulated
sim_ticks                                   291288500                       # Number of ticks simulated
final_tick                                  291288500                       # Number of ticks from beginning of simulation (restored from checkpoints and never reset)
sim_freq                                 1000000000000                       # Frequency of simulated ticks
host_inst_rate                                 180389                       # Simulator instruction rate (inst/s)
host_op_rate                                   182626                       # Simulator op (including micro ops) rate (op/s)
host_tick_rate                               10486515                       # Simulator tick rate (ticks/s)
host_mem_usage                                 729624                       # Number of bytes of host memory used
host_seconds                                    27.78                       # Real time elapsed on the host
sim_insts                                     5008153                       # Number of instructions simulated
sim_ops                                       5072431                       # Number of ops (including micro ops) simulated
system.voltage_domain.voltage                       1                       # Voltage in Volts
system.clk_domain.clock                          1000                       # Clock period in ticks
system.mem_ctrls.bytes_read::cpu00.inst         40128                       # Number of bytes read from this memory
system.mem_ctrls.bytes_read::cpu00.data        225920                       # Number of bytes read from this memory
system.mem_ctrls.bytes_read::cpu01.inst          3392                       # Number of bytes read from this memory
system.mem_ctrls.bytes_read::cpu01.data         21184                       # Number of bytes read from this memory
system.mem_ctrls.bytes_read::cpu02.inst          3392                       # Number of bytes read from this memory
system.mem_ctrls.bytes_read::cpu02.data         19456                       # Number of bytes read from this memory
system.mem_ctrls.bytes_read::cpu03.inst          3392                       # Number of bytes read from this memory
system.mem_ctrls.bytes_read::cpu03.data         19200                       # Number of bytes read from this memory
system.mem_ctrls.bytes_read::cpu04.inst          3328                       # Number of bytes read from this memory
system.mem_ctrls.bytes_read::cpu04.data         18048                       # Number of bytes read from this memory
system.mem_ctrls.bytes_read::cpu05.inst          3328                       # Number of bytes read from this memory
system.mem_ctrls.bytes_read::cpu05.data         18432                       # Number of bytes read from this memory
system.mem_ctrls.bytes_read::cpu06.inst          3392                       # Number of bytes read from this memory
system.mem_ctrls.bytes_read::cpu06.data         19968                       # Number of bytes read from this memory
system.mem_ctrls.bytes_read::cpu07.inst          3392                       # Number of bytes read from this memory
system.mem_ctrls.bytes_read::cpu07.data         20096                       # Number of bytes read from this memory
system.mem_ctrls.bytes_read::cpu08.inst          3392                       # Number of bytes read from this memory
system.mem_ctrls.bytes_read::cpu08.data         21120                       # Number of bytes read from this memory
system.mem_ctrls.bytes_read::cpu09.inst          3520                       # Number of bytes read from this memory
system.mem_ctrls.bytes_read::cpu09.data         21184                       # Number of bytes read from this memory
system.mem_ctrls.bytes_read::cpu10.inst          3584                       # Number of bytes read from this memory
system.mem_ctrls.bytes_read::cpu10.data         24128                       # Number of bytes read from this memory
system.mem_ctrls.bytes_read::cpu11.inst          3520                       # Number of bytes read from this memory
system.mem_ctrls.bytes_read::cpu11.data         24192                       # Number of bytes read from this memory
system.mem_ctrls.bytes_read::cpu12.inst          3520                       # Number of bytes read from this memory
system.mem_ctrls.bytes_read::cpu12.data         18880                       # Number of bytes read from this memory
system.mem_ctrls.bytes_read::cpu13.inst          3648                       # Number of bytes read from this memory
system.mem_ctrls.bytes_read::cpu13.data         20096                       # Number of bytes read from this memory
system.mem_ctrls.bytes_read::cpu14.inst          3648                       # Number of bytes read from this memory
system.mem_ctrls.bytes_read::cpu14.data         19520                       # Number of bytes read from this memory
system.mem_ctrls.bytes_read::cpu15.inst          3648                       # Number of bytes read from this memory
system.mem_ctrls.bytes_read::cpu15.data         19584                       # Number of bytes read from this memory
system.mem_ctrls.bytes_read::total             623232                       # Number of bytes read from this memory
system.mem_ctrls.bytes_inst_read::cpu00.inst        40128                       # Number of instructions bytes read from this memory
system.mem_ctrls.bytes_inst_read::cpu01.inst         3392                       # Number of instructions bytes read from this memory
system.mem_ctrls.bytes_inst_read::cpu02.inst         3392                       # Number of instructions bytes read from this memory
system.mem_ctrls.bytes_inst_read::cpu03.inst         3392                       # Number of instructions bytes read from this memory
system.mem_ctrls.bytes_inst_read::cpu04.inst         3328                       # Number of instructions bytes read from this memory
system.mem_ctrls.bytes_inst_read::cpu05.inst         3328                       # Number of instructions bytes read from this memory
system.mem_ctrls.bytes_inst_read::cpu06.inst         3392                       # Number of instructions bytes read from this memory
system.mem_ctrls.bytes_inst_read::cpu07.inst         3392                       # Number of instructions bytes read from this memory
system.mem_ctrls.bytes_inst_read::cpu08.inst         3392                       # Number of instructions bytes read from this memory
system.mem_ctrls.bytes_inst_read::cpu09.inst         3520                       # Number of instructions bytes read from this memory
system.mem_ctrls.bytes_inst_read::cpu10.inst         3584                       # Number of instructions bytes read from this memory
system.mem_ctrls.bytes_inst_read::cpu11.inst         3520                       # Number of instructions bytes read from this memory
system.mem_ctrls.bytes_inst_read::cpu12.inst         3520                       # Number of instructions bytes read from this memory
system.mem_ctrls.bytes_inst_read::cpu13.inst         3648                       # Number of instructions bytes read from this memory
system.mem_ctrls.bytes_inst_read::cpu14.inst         3648                       # Number of instructions bytes read from this memory
system.mem_ctrls.bytes_inst_read::cpu15.inst         3648                       # Number of instructions bytes read from this memory
system.mem_ctrls.bytes_inst_read::total         92224                       # Number of instructions bytes read from this memory
system.mem_ctrls.bytes_written::writebacks       356928                       # Number of bytes written to this memory
system.mem_ctrls.bytes_written::total          356928                       # Number of bytes written to this memory
system.mem_ctrls.num_reads::cpu00.inst            627                       # Number of read requests responded to by this memory
system.mem_ctrls.num_reads::cpu00.data           3530                       # Number of read requests responded to by this memory
system.mem_ctrls.num_reads::cpu01.inst             53                       # Number of read requests responded to by this memory
system.mem_ctrls.num_reads::cpu01.data            331                       # Number of read requests responded to by this memory
system.mem_ctrls.num_reads::cpu02.inst             53                       # Number of read requests responded to by this memory
system.mem_ctrls.num_reads::cpu02.data            304                       # Number of read requests responded to by this memory
system.mem_ctrls.num_reads::cpu03.inst             53                       # Number of read requests responded to by this memory
system.mem_ctrls.num_reads::cpu03.data            300                       # Number of read requests responded to by this memory
system.mem_ctrls.num_reads::cpu04.inst             52                       # Number of read requests responded to by this memory
system.mem_ctrls.num_reads::cpu04.data            282                       # Number of read requests responded to by this memory
system.mem_ctrls.num_reads::cpu05.inst             52                       # Number of read requests responded to by this memory
system.mem_ctrls.num_reads::cpu05.data            288                       # Number of read requests responded to by this memory
system.mem_ctrls.num_reads::cpu06.inst             53                       # Number of read requests responded to by this memory
system.mem_ctrls.num_reads::cpu06.data            312                       # Number of read requests responded to by this memory
system.mem_ctrls.num_reads::cpu07.inst             53                       # Number of read requests responded to by this memory
system.mem_ctrls.num_reads::cpu07.data            314                       # Number of read requests responded to by this memory
system.mem_ctrls.num_reads::cpu08.inst             53                       # Number of read requests responded to by this memory
system.mem_ctrls.num_reads::cpu08.data            330                       # Number of read requests responded to by this memory
system.mem_ctrls.num_reads::cpu09.inst             55                       # Number of read requests responded to by this memory
system.mem_ctrls.num_reads::cpu09.data            331                       # Number of read requests responded to by this memory
system.mem_ctrls.num_reads::cpu10.inst             56                       # Number of read requests responded to by this memory
system.mem_ctrls.num_reads::cpu10.data            377                       # Number of read requests responded to by this memory
system.mem_ctrls.num_reads::cpu11.inst             55                       # Number of read requests responded to by this memory
system.mem_ctrls.num_reads::cpu11.data            378                       # Number of read requests responded to by this memory
system.mem_ctrls.num_reads::cpu12.inst             55                       # Number of read requests responded to by this memory
system.mem_ctrls.num_reads::cpu12.data            295                       # Number of read requests responded to by this memory
system.mem_ctrls.num_reads::cpu13.inst             57                       # Number of read requests responded to by this memory
system.mem_ctrls.num_reads::cpu13.data            314                       # Number of read requests responded to by this memory
system.mem_ctrls.num_reads::cpu14.inst             57                       # Number of read requests responded to by this memory
system.mem_ctrls.num_reads::cpu14.data            305                       # Number of read requests responded to by this memory
system.mem_ctrls.num_reads::cpu15.inst             57                       # Number of read requests responded to by this memory
system.mem_ctrls.num_reads::cpu15.data            306                       # Number of read requests responded to by this memory
system.mem_ctrls.num_reads::total                9738                       # Number of read requests responded to by this memory
system.mem_ctrls.num_writes::writebacks          5577                       # Number of write requests responded to by this memory
system.mem_ctrls.num_writes::total               5577                       # Number of write requests responded to by this memory
system.mem_ctrls.bw_read::cpu00.inst        137760330                       # Total read bandwidth from this memory (bytes/s)
system.mem_ctrls.bw_read::cpu00.data        775588463                       # Total read bandwidth from this memory (bytes/s)
system.mem_ctrls.bw_read::cpu01.inst         11644813                       # Total read bandwidth from this memory (bytes/s)
system.mem_ctrls.bw_read::cpu01.data         72725150                       # Total read bandwidth from this memory (bytes/s)
system.mem_ctrls.bw_read::cpu02.inst         11644813                       # Total read bandwidth from this memory (bytes/s)
system.mem_ctrls.bw_read::cpu02.data         66792887                       # Total read bandwidth from this memory (bytes/s)
system.mem_ctrls.bw_read::cpu03.inst         11644813                       # Total read bandwidth from this memory (bytes/s)
system.mem_ctrls.bw_read::cpu03.data         65914034                       # Total read bandwidth from this memory (bytes/s)
system.mem_ctrls.bw_read::cpu04.inst         11425099                       # Total read bandwidth from this memory (bytes/s)
system.mem_ctrls.bw_read::cpu04.data         61959192                       # Total read bandwidth from this memory (bytes/s)
system.mem_ctrls.bw_read::cpu05.inst         11425099                       # Total read bandwidth from this memory (bytes/s)
system.mem_ctrls.bw_read::cpu05.data         63277472                       # Total read bandwidth from this memory (bytes/s)
system.mem_ctrls.bw_read::cpu06.inst         11644813                       # Total read bandwidth from this memory (bytes/s)
system.mem_ctrls.bw_read::cpu06.data         68550595                       # Total read bandwidth from this memory (bytes/s)
system.mem_ctrls.bw_read::cpu07.inst         11644813                       # Total read bandwidth from this memory (bytes/s)
system.mem_ctrls.bw_read::cpu07.data         68990022                       # Total read bandwidth from this memory (bytes/s)
system.mem_ctrls.bw_read::cpu08.inst         11644813                       # Total read bandwidth from this memory (bytes/s)
system.mem_ctrls.bw_read::cpu08.data         72505437                       # Total read bandwidth from this memory (bytes/s)
system.mem_ctrls.bw_read::cpu09.inst         12084240                       # Total read bandwidth from this memory (bytes/s)
system.mem_ctrls.bw_read::cpu09.data         72725150                       # Total read bandwidth from this memory (bytes/s)
system.mem_ctrls.bw_read::cpu10.inst         12303953                       # Total read bandwidth from this memory (bytes/s)
system.mem_ctrls.bw_read::cpu10.data         82831969                       # Total read bandwidth from this memory (bytes/s)
system.mem_ctrls.bw_read::cpu11.inst         12084240                       # Total read bandwidth from this memory (bytes/s)
system.mem_ctrls.bw_read::cpu11.data         83051682                       # Total read bandwidth from this memory (bytes/s)
system.mem_ctrls.bw_read::cpu12.inst         12084240                       # Total read bandwidth from this memory (bytes/s)
system.mem_ctrls.bw_read::cpu12.data         64815466                       # Total read bandwidth from this memory (bytes/s)
system.mem_ctrls.bw_read::cpu13.inst         12523666                       # Total read bandwidth from this memory (bytes/s)
system.mem_ctrls.bw_read::cpu13.data         68990022                       # Total read bandwidth from this memory (bytes/s)
system.mem_ctrls.bw_read::cpu14.inst         12523666                       # Total read bandwidth from this memory (bytes/s)
system.mem_ctrls.bw_read::cpu14.data         67012601                       # Total read bandwidth from this memory (bytes/s)
system.mem_ctrls.bw_read::cpu15.inst         12523666                       # Total read bandwidth from this memory (bytes/s)
system.mem_ctrls.bw_read::cpu15.data         67232314                       # Total read bandwidth from this memory (bytes/s)
system.mem_ctrls.bw_read::total            2139569533                       # Total read bandwidth from this memory (bytes/s)
system.mem_ctrls.bw_inst_read::cpu00.inst    137760330                       # Instruction read bandwidth from this memory (bytes/s)
system.mem_ctrls.bw_inst_read::cpu01.inst     11644813                       # Instruction read bandwidth from this memory (bytes/s)
system.mem_ctrls.bw_inst_read::cpu02.inst     11644813                       # Instruction read bandwidth from this memory (bytes/s)
system.mem_ctrls.bw_inst_read::cpu03.inst     11644813                       # Instruction read bandwidth from this memory (bytes/s)
system.mem_ctrls.bw_inst_read::cpu04.inst     11425099                       # Instruction read bandwidth from this memory (bytes/s)
system.mem_ctrls.bw_inst_read::cpu05.inst     11425099                       # Instruction read bandwidth from this memory (bytes/s)
system.mem_ctrls.bw_inst_read::cpu06.inst     11644813                       # Instruction read bandwidth from this memory (bytes/s)
system.mem_ctrls.bw_inst_read::cpu07.inst     11644813                       # Instruction read bandwidth from this memory (bytes/s)
system.mem_ctrls.bw_inst_read::cpu08.inst     11644813                       # Instruction read bandwidth from this memory (bytes/s)
system.mem_ctrls.bw_inst_read::cpu09.inst     12084240                       # Instruction read bandwidth from this memory (bytes/s)
system.mem_ctrls.bw_inst_read::cpu10.inst     12303953                       # Instruction read bandwidth from this memory (bytes/s)
system.mem_ctrls.bw_inst_read::cpu11.inst     12084240                       # Instruction read bandwidth from this memory (bytes/s)
system.mem_ctrls.bw_inst_read::cpu12.inst     12084240                       # Instruction read bandwidth from this memory (bytes/s)
system.mem_ctrls.bw_inst_read::cpu13.inst     12523666                       # Instruction read bandwidth from this memory (bytes/s)
system.mem_ctrls.bw_inst_read::cpu14.inst     12523666                       # Instruction read bandwidth from this memory (bytes/s)
system.mem_ctrls.bw_inst_read::cpu15.inst     12523666                       # Instruction read bandwidth from this memory (bytes/s)
system.mem_ctrls.bw_inst_read::total        316607075                       # Instruction read bandwidth from this memory (bytes/s)
system.mem_ctrls.bw_write::writebacks      1225341886                       # Write bandwidth from this memory (bytes/s)
system.mem_ctrls.bw_write::total           1225341886                       # Write bandwidth from this memory (bytes/s)
system.mem_ctrls.bw_total::writebacks      1225341886                       # Total bandwidth to/from this memory (bytes/s)
system.mem_ctrls.bw_total::cpu00.inst       137760330                       # Total bandwidth to/from this memory (bytes/s)
system.mem_ctrls.bw_total::cpu00.data       775588463                       # Total bandwidth to/from this memory (bytes/s)
system.mem_ctrls.bw_total::cpu01.inst        11644813                       # Total bandwidth to/from this memory (bytes/s)
system.mem_ctrls.bw_total::cpu01.data        72725150                       # Total bandwidth to/from this memory (bytes/s)
system.mem_ctrls.bw_total::cpu02.inst        11644813                       # Total bandwidth to/from this memory (bytes/s)
system.mem_ctrls.bw_total::cpu02.data        66792887                       # Total bandwidth to/from this memory (bytes/s)
system.mem_ctrls.bw_total::cpu03.inst        11644813                       # Total bandwidth to/from this memory (bytes/s)
system.mem_ctrls.bw_total::cpu03.data        65914034                       # Total bandwidth to/from this memory (bytes/s)
system.mem_ctrls.bw_total::cpu04.inst        11425099                       # Total bandwidth to/from this memory (bytes/s)
system.mem_ctrls.bw_total::cpu04.data        61959192                       # Total bandwidth to/from this memory (bytes/s)
system.mem_ctrls.bw_total::cpu05.inst        11425099                       # Total bandwidth to/from this memory (bytes/s)
system.mem_ctrls.bw_total::cpu05.data        63277472                       # Total bandwidth to/from this memory (bytes/s)
system.mem_ctrls.bw_total::cpu06.inst        11644813                       # Total bandwidth to/from this memory (bytes/s)
system.mem_ctrls.bw_total::cpu06.data        68550595                       # Total bandwidth to/from this memory (bytes/s)
system.mem_ctrls.bw_total::cpu07.inst        11644813                       # Total bandwidth to/from this memory (bytes/s)
system.mem_ctrls.bw_total::cpu07.data        68990022                       # Total bandwidth to/from this memory (bytes/s)
system.mem_ctrls.bw_total::cpu08.inst        11644813                       # Total bandwidth to/from this memory (bytes/s)
system.mem_ctrls.bw_total::cpu08.data        72505437                       # Total bandwidth to/from this memory (bytes/s)
system.mem_ctrls.bw_total::cpu09.inst        12084240                       # Total bandwidth to/from this memory (bytes/s)
system.mem_ctrls.bw_total::cpu09.data        72725150                       # Total bandwidth to/from this memory (bytes/s)
system.mem_ctrls.bw_total::cpu10.inst        12303953                       # Total bandwidth to/from this memory (bytes/s)
system.mem_ctrls.bw_total::cpu10.data        82831969                       # Total bandwidth to/from this memory (bytes/s)
system.mem_ctrls.bw_total::cpu11.inst        12084240                       # Total bandwidth to/from this memory (bytes/s)
system.mem_ctrls.bw_total::cpu11.data        83051682                       # Total bandwidth to/from this memory (bytes/s)
system.mem_ctrls.bw_total::cpu12.inst        12084240                       # Total bandwidth to/from this memory (bytes/s)
system.mem_ctrls.bw_total::cpu12.data        64815466                       # Total bandwidth to/from this memory (bytes/s)
system.mem_ctrls.bw_total::cpu13.inst        12523666                       # Total bandwidth to/from this memory (bytes/s)
system.mem_ctrls.bw_total::cpu13.data        68990022                       # Total bandwidth to/from this memory (bytes/s)
system.mem_ctrls.bw_total::cpu14.inst        12523666                       # Total bandwidth to/from this memory (bytes/s)
system.mem_ctrls.bw_total::cpu14.data        67012601                       # Total bandwidth to/from this memory (bytes/s)
system.mem_ctrls.bw_total::cpu15.inst        12523666                       # Total bandwidth to/from this memory (bytes/s)
system.mem_ctrls.bw_total::cpu15.data        67232314                       # Total bandwidth to/from this memory (bytes/s)
system.mem_ctrls.bw_total::total           3364911419                       # Total bandwidth to/from this memory (bytes/s)
system.mem_ctrls.readReqs                        9739                       # Number of read requests accepted
system.mem_ctrls.writeReqs                       5577                       # Number of write requests accepted
system.mem_ctrls.readBursts                      9739                       # Number of DRAM read bursts, including those serviced by the write queue
system.mem_ctrls.writeBursts                     5577                       # Number of DRAM write bursts, including those merged in the write queue
system.mem_ctrls.bytesReadDRAM                 430080                       # Total number of bytes read from DRAM
system.mem_ctrls.bytesReadWrQ                  193216                       # Total number of bytes read from write queue
system.mem_ctrls.bytesWritten                  194688                       # Total number of bytes written to DRAM
system.mem_ctrls.bytesReadSys                  623296                       # Total read bytes from the system interface side
system.mem_ctrls.bytesWrittenSys               356928                       # Total written bytes from the system interface side
system.mem_ctrls.servicedByWrQ                   3019                       # Number of DRAM read bursts serviced by the write queue
system.mem_ctrls.mergedWrBursts                  2504                       # Number of DRAM write bursts merged with an existing one
system.mem_ctrls.neitherReadNorWriteReqs           18                       # Number of requests that are neither read nor write
system.mem_ctrls.perBankRdBursts::0               278                       # Per bank write bursts
system.mem_ctrls.perBankRdBursts::1               709                       # Per bank write bursts
system.mem_ctrls.perBankRdBursts::2               307                       # Per bank write bursts
system.mem_ctrls.perBankRdBursts::3               801                       # Per bank write bursts
system.mem_ctrls.perBankRdBursts::4               396                       # Per bank write bursts
system.mem_ctrls.perBankRdBursts::5               606                       # Per bank write bursts
system.mem_ctrls.perBankRdBursts::6               441                       # Per bank write bursts
system.mem_ctrls.perBankRdBursts::7               695                       # Per bank write bursts
system.mem_ctrls.perBankRdBursts::8               296                       # Per bank write bursts
system.mem_ctrls.perBankRdBursts::9               311                       # Per bank write bursts
system.mem_ctrls.perBankRdBursts::10              256                       # Per bank write bursts
system.mem_ctrls.perBankRdBursts::11              348                       # Per bank write bursts
system.mem_ctrls.perBankRdBursts::12              346                       # Per bank write bursts
system.mem_ctrls.perBankRdBursts::13              359                       # Per bank write bursts
system.mem_ctrls.perBankRdBursts::14              317                       # Per bank write bursts
system.mem_ctrls.perBankRdBursts::15              254                       # Per bank write bursts
system.mem_ctrls.perBankWrBursts::0                 6                       # Per bank write bursts
system.mem_ctrls.perBankWrBursts::1                32                       # Per bank write bursts
system.mem_ctrls.perBankWrBursts::2                59                       # Per bank write bursts
system.mem_ctrls.perBankWrBursts::3               185                       # Per bank write bursts
system.mem_ctrls.perBankWrBursts::4               149                       # Per bank write bursts
system.mem_ctrls.perBankWrBursts::5               167                       # Per bank write bursts
system.mem_ctrls.perBankWrBursts::6               136                       # Per bank write bursts
system.mem_ctrls.perBankWrBursts::7               164                       # Per bank write bursts
system.mem_ctrls.perBankWrBursts::8               129                       # Per bank write bursts
system.mem_ctrls.perBankWrBursts::9               130                       # Per bank write bursts
system.mem_ctrls.perBankWrBursts::10              129                       # Per bank write bursts
system.mem_ctrls.perBankWrBursts::11              403                       # Per bank write bursts
system.mem_ctrls.perBankWrBursts::12              430                       # Per bank write bursts
system.mem_ctrls.perBankWrBursts::13              424                       # Per bank write bursts
system.mem_ctrls.perBankWrBursts::14              409                       # Per bank write bursts
system.mem_ctrls.perBankWrBursts::15               90                       # Per bank write bursts
system.mem_ctrls.numRdRetry                        42                       # Number of times read queue was full causing retry
system.mem_ctrls.numWrRetry                         0                       # Number of times write queue was full causing retry
system.mem_ctrls.totGap                     291286000                       # Total gap between requests
system.mem_ctrls.readPktSize::0                     0                       # Read request sizes (log2)
system.mem_ctrls.readPktSize::1                     0                       # Read request sizes (log2)
system.mem_ctrls.readPktSize::2                     0                       # Read request sizes (log2)
system.mem_ctrls.readPktSize::3                     0                       # Read request sizes (log2)
system.mem_ctrls.readPktSize::4                     0                       # Read request sizes (log2)
system.mem_ctrls.readPktSize::5                     0                       # Read request sizes (log2)
system.mem_ctrls.readPktSize::6                  9739                       # Read request sizes (log2)
system.mem_ctrls.writePktSize::0                    0                       # Write request sizes (log2)
system.mem_ctrls.writePktSize::1                    0                       # Write request sizes (log2)
system.mem_ctrls.writePktSize::2                    0                       # Write request sizes (log2)
system.mem_ctrls.writePktSize::3                    0                       # Write request sizes (log2)
system.mem_ctrls.writePktSize::4                    0                       # Write request sizes (log2)
system.mem_ctrls.writePktSize::5                    0                       # Write request sizes (log2)
system.mem_ctrls.writePktSize::6                 5577                       # Write request sizes (log2)
system.mem_ctrls.rdQLenPdf::0                    4021                       # What read queue length does an incoming req see
system.mem_ctrls.rdQLenPdf::1                     866                       # What read queue length does an incoming req see
system.mem_ctrls.rdQLenPdf::2                     422                       # What read queue length does an incoming req see
system.mem_ctrls.rdQLenPdf::3                     249                       # What read queue length does an incoming req see
system.mem_ctrls.rdQLenPdf::4                     156                       # What read queue length does an incoming req see
system.mem_ctrls.rdQLenPdf::5                     126                       # What read queue length does an incoming req see
system.mem_ctrls.rdQLenPdf::6                     110                       # What read queue length does an incoming req see
system.mem_ctrls.rdQLenPdf::7                      84                       # What read queue length does an incoming req see
system.mem_ctrls.rdQLenPdf::8                     103                       # What read queue length does an incoming req see
system.mem_ctrls.rdQLenPdf::9                      73                       # What read queue length does an incoming req see
system.mem_ctrls.rdQLenPdf::10                     69                       # What read queue length does an incoming req see
system.mem_ctrls.rdQLenPdf::11                     47                       # What read queue length does an incoming req see
system.mem_ctrls.rdQLenPdf::12                     48                       # What read queue length does an incoming req see
system.mem_ctrls.rdQLenPdf::13                     28                       # What read queue length does an incoming req see
system.mem_ctrls.rdQLenPdf::14                     16                       # What read queue length does an incoming req see
system.mem_ctrls.rdQLenPdf::15                     17                       # What read queue length does an incoming req see
system.mem_ctrls.rdQLenPdf::16                     14                       # What read queue length does an incoming req see
system.mem_ctrls.rdQLenPdf::17                     10                       # What read queue length does an incoming req see
system.mem_ctrls.rdQLenPdf::18                     10                       # What read queue length does an incoming req see
system.mem_ctrls.rdQLenPdf::19                     16                       # What read queue length does an incoming req see
system.mem_ctrls.rdQLenPdf::20                     12                       # What read queue length does an incoming req see
system.mem_ctrls.rdQLenPdf::21                     13                       # What read queue length does an incoming req see
system.mem_ctrls.rdQLenPdf::22                     22                       # What read queue length does an incoming req see
system.mem_ctrls.rdQLenPdf::23                     26                       # What read queue length does an incoming req see
system.mem_ctrls.rdQLenPdf::24                     22                       # What read queue length does an incoming req see
system.mem_ctrls.rdQLenPdf::25                     18                       # What read queue length does an incoming req see
system.mem_ctrls.rdQLenPdf::26                     18                       # What read queue length does an incoming req see
system.mem_ctrls.rdQLenPdf::27                     33                       # What read queue length does an incoming req see
system.mem_ctrls.rdQLenPdf::28                     10                       # What read queue length does an incoming req see
system.mem_ctrls.rdQLenPdf::29                     11                       # What read queue length does an incoming req see
system.mem_ctrls.rdQLenPdf::30                      4                       # What read queue length does an incoming req see
system.mem_ctrls.rdQLenPdf::31                     46                       # What read queue length does an incoming req see
system.mem_ctrls.wrQLenPdf::0                       1                       # What write queue length does an incoming req see
system.mem_ctrls.wrQLenPdf::1                       1                       # What write queue length does an incoming req see
system.mem_ctrls.wrQLenPdf::2                       1                       # What write queue length does an incoming req see
system.mem_ctrls.wrQLenPdf::3                       1                       # What write queue length does an incoming req see
system.mem_ctrls.wrQLenPdf::4                       1                       # What write queue length does an incoming req see
system.mem_ctrls.wrQLenPdf::5                       1                       # What write queue length does an incoming req see
system.mem_ctrls.wrQLenPdf::6                       1                       # What write queue length does an incoming req see
system.mem_ctrls.wrQLenPdf::7                       1                       # What write queue length does an incoming req see
system.mem_ctrls.wrQLenPdf::8                       1                       # What write queue length does an incoming req see
system.mem_ctrls.wrQLenPdf::9                       1                       # What write queue length does an incoming req see
system.mem_ctrls.wrQLenPdf::10                      1                       # What write queue length does an incoming req see
system.mem_ctrls.wrQLenPdf::11                      1                       # What write queue length does an incoming req see
system.mem_ctrls.wrQLenPdf::12                      1                       # What write queue length does an incoming req see
system.mem_ctrls.wrQLenPdf::13                      1                       # What write queue length does an incoming req see
system.mem_ctrls.wrQLenPdf::14                      1                       # What write queue length does an incoming req see
system.mem_ctrls.wrQLenPdf::15                      5                       # What write queue length does an incoming req see
system.mem_ctrls.wrQLenPdf::16                      8                       # What write queue length does an incoming req see
system.mem_ctrls.wrQLenPdf::17                    133                       # What write queue length does an incoming req see
system.mem_ctrls.wrQLenPdf::18                    156                       # What write queue length does an incoming req see
system.mem_ctrls.wrQLenPdf::19                    187                       # What write queue length does an incoming req see
system.mem_ctrls.wrQLenPdf::20                    206                       # What write queue length does an incoming req see
system.mem_ctrls.wrQLenPdf::21                    198                       # What write queue length does an incoming req see
system.mem_ctrls.wrQLenPdf::22                    209                       # What write queue length does an incoming req see
system.mem_ctrls.wrQLenPdf::23                    200                       # What write queue length does an incoming req see
system.mem_ctrls.wrQLenPdf::24                    204                       # What write queue length does an incoming req see
system.mem_ctrls.wrQLenPdf::25                    200                       # What write queue length does an incoming req see
system.mem_ctrls.wrQLenPdf::26                    205                       # What write queue length does an incoming req see
system.mem_ctrls.wrQLenPdf::27                    191                       # What write queue length does an incoming req see
system.mem_ctrls.wrQLenPdf::28                    190                       # What write queue length does an incoming req see
system.mem_ctrls.wrQLenPdf::29                    192                       # What write queue length does an incoming req see
system.mem_ctrls.wrQLenPdf::30                    190                       # What write queue length does an incoming req see
system.mem_ctrls.wrQLenPdf::31                    189                       # What write queue length does an incoming req see
system.mem_ctrls.wrQLenPdf::32                    191                       # What write queue length does an incoming req see
system.mem_ctrls.wrQLenPdf::33                      3                       # What write queue length does an incoming req see
system.mem_ctrls.wrQLenPdf::34                      1                       # What write queue length does an incoming req see
system.mem_ctrls.wrQLenPdf::35                      0                       # What write queue length does an incoming req see
system.mem_ctrls.wrQLenPdf::36                      0                       # What write queue length does an incoming req see
system.mem_ctrls.wrQLenPdf::37                      0                       # What write queue length does an incoming req see
system.mem_ctrls.wrQLenPdf::38                      0                       # What write queue length does an incoming req see
system.mem_ctrls.wrQLenPdf::39                      0                       # What write queue length does an incoming req see
system.mem_ctrls.wrQLenPdf::40                      0                       # What write queue length does an incoming req see
system.mem_ctrls.wrQLenPdf::41                      0                       # What write queue length does an incoming req see
system.mem_ctrls.wrQLenPdf::42                      0                       # What write queue length does an incoming req see
system.mem_ctrls.wrQLenPdf::43                      0                       # What write queue length does an incoming req see
system.mem_ctrls.wrQLenPdf::44                      0                       # What write queue length does an incoming req see
system.mem_ctrls.wrQLenPdf::45                      0                       # What write queue length does an incoming req see
system.mem_ctrls.wrQLenPdf::46                      0                       # What write queue length does an incoming req see
system.mem_ctrls.wrQLenPdf::47                      0                       # What write queue length does an incoming req see
system.mem_ctrls.wrQLenPdf::48                      0                       # What write queue length does an incoming req see
system.mem_ctrls.wrQLenPdf::49                      0                       # What write queue length does an incoming req see
system.mem_ctrls.wrQLenPdf::50                      0                       # What write queue length does an incoming req see
system.mem_ctrls.wrQLenPdf::51                      0                       # What write queue length does an incoming req see
system.mem_ctrls.wrQLenPdf::52                      0                       # What write queue length does an incoming req see
system.mem_ctrls.wrQLenPdf::53                      0                       # What write queue length does an incoming req see
system.mem_ctrls.wrQLenPdf::54                      0                       # What write queue length does an incoming req see
system.mem_ctrls.wrQLenPdf::55                      0                       # What write queue length does an incoming req see
system.mem_ctrls.wrQLenPdf::56                      0                       # What write queue length does an incoming req see
system.mem_ctrls.wrQLenPdf::57                      0                       # What write queue length does an incoming req see
system.mem_ctrls.wrQLenPdf::58                      0                       # What write queue length does an incoming req see
system.mem_ctrls.wrQLenPdf::59                      0                       # What write queue length does an incoming req see
system.mem_ctrls.wrQLenPdf::60                      0                       # What write queue length does an incoming req see
system.mem_ctrls.wrQLenPdf::61                      0                       # What write queue length does an incoming req see
system.mem_ctrls.wrQLenPdf::62                      0                       # What write queue length does an incoming req see
system.mem_ctrls.wrQLenPdf::63                      0                       # What write queue length does an incoming req see
system.mem_ctrls.bytesPerActivate::samples         1120                       # Bytes accessed per row activation
system.mem_ctrls.bytesPerActivate::mean    555.085714                       # Bytes accessed per row activation
system.mem_ctrls.bytesPerActivate::gmean   333.776917                       # Bytes accessed per row activation
system.mem_ctrls.bytesPerActivate::stdev   421.839632                       # Bytes accessed per row activation
system.mem_ctrls.bytesPerActivate::0-127          287     25.62%     25.62% # Bytes accessed per row activation
system.mem_ctrls.bytesPerActivate::128-255          137     12.23%     37.86% # Bytes accessed per row activation
system.mem_ctrls.bytesPerActivate::256-383           69      6.16%     44.02% # Bytes accessed per row activation
system.mem_ctrls.bytesPerActivate::384-511           62      5.54%     49.55% # Bytes accessed per row activation
system.mem_ctrls.bytesPerActivate::512-639           45      4.02%     53.57% # Bytes accessed per row activation
system.mem_ctrls.bytesPerActivate::640-767           28      2.50%     56.07% # Bytes accessed per row activation
system.mem_ctrls.bytesPerActivate::768-895           29      2.59%     58.66% # Bytes accessed per row activation
system.mem_ctrls.bytesPerActivate::896-1023           37      3.30%     61.96% # Bytes accessed per row activation
system.mem_ctrls.bytesPerActivate::1024-1151          426     38.04%    100.00% # Bytes accessed per row activation
system.mem_ctrls.bytesPerActivate::total         1120                       # Bytes accessed per row activation
system.mem_ctrls.rdPerTurnAround::samples          189                       # Reads before turning the bus around for writes
system.mem_ctrls.rdPerTurnAround::mean      35.269841                       # Reads before turning the bus around for writes
system.mem_ctrls.rdPerTurnAround::gmean     20.803586                       # Reads before turning the bus around for writes
system.mem_ctrls.rdPerTurnAround::stdev    103.212939                       # Reads before turning the bus around for writes
system.mem_ctrls.rdPerTurnAround::0-63            178     94.18%     94.18% # Reads before turning the bus around for writes
system.mem_ctrls.rdPerTurnAround::64-127            6      3.17%     97.35% # Reads before turning the bus around for writes
system.mem_ctrls.rdPerTurnAround::192-255            2      1.06%     98.41% # Reads before turning the bus around for writes
system.mem_ctrls.rdPerTurnAround::256-319            1      0.53%     98.94% # Reads before turning the bus around for writes
system.mem_ctrls.rdPerTurnAround::640-703            1      0.53%     99.47% # Reads before turning the bus around for writes
system.mem_ctrls.rdPerTurnAround::1216-1279            1      0.53%    100.00% # Reads before turning the bus around for writes
system.mem_ctrls.rdPerTurnAround::total           189                       # Reads before turning the bus around for writes
system.mem_ctrls.wrPerTurnAround::samples          189                       # Writes before turning the bus around for reads
system.mem_ctrls.wrPerTurnAround::mean      16.095238                       # Writes before turning the bus around for reads
system.mem_ctrls.wrPerTurnAround::gmean     16.087909                       # Writes before turning the bus around for reads
system.mem_ctrls.wrPerTurnAround::stdev      0.517182                       # Writes before turning the bus around for reads
system.mem_ctrls.wrPerTurnAround::16              181     95.77%     95.77% # Writes before turning the bus around for reads
system.mem_ctrls.wrPerTurnAround::17                3      1.59%     97.35% # Writes before turning the bus around for reads
system.mem_ctrls.wrPerTurnAround::18                2      1.06%     98.41% # Writes before turning the bus around for reads
system.mem_ctrls.wrPerTurnAround::19                1      0.53%     98.94% # Writes before turning the bus around for reads
system.mem_ctrls.wrPerTurnAround::20                2      1.06%    100.00% # Writes before turning the bus around for reads
system.mem_ctrls.wrPerTurnAround::total           189                       # Writes before turning the bus around for reads
system.mem_ctrls.totQLat                    146374250                       # Total ticks spent queuing
system.mem_ctrls.totMemAccLat               272374250                       # Total ticks spent from burst creation until serviced by the DRAM
system.mem_ctrls.totBusLat                   33600000                       # Total ticks spent in databus transfers
system.mem_ctrls.avgQLat                     21781.88                       # Average queueing delay per DRAM burst
system.mem_ctrls.avgBusLat                    5000.00                       # Average bus latency per DRAM burst
system.mem_ctrls.avgMemAccLat                40531.88                       # Average memory access latency per DRAM burst
system.mem_ctrls.avgRdBW                      1476.47                       # Average DRAM read bandwidth in MiByte/s
system.mem_ctrls.avgWrBW                       668.37                       # Average achieved write bandwidth in MiByte/s
system.mem_ctrls.avgRdBWSys                   2139.79                       # Average system read bandwidth in MiByte/s
system.mem_ctrls.avgWrBWSys                   1225.34                       # Average system write bandwidth in MiByte/s
system.mem_ctrls.peakBW                      12800.00                       # Theoretical peak bandwidth in MiByte/s
system.mem_ctrls.busUtil                        16.76                       # Data bus utilization in percentage
system.mem_ctrls.busUtilRead                    11.53                       # Data bus utilization in percentage for reads
system.mem_ctrls.busUtilWrite                    5.22                       # Data bus utilization in percentage for writes
system.mem_ctrls.avgRdQLen                       1.73                       # Average read queue length when enqueuing
system.mem_ctrls.avgWrQLen                      21.32                       # Average write queue length when enqueuing
system.mem_ctrls.readRowHits                     5805                       # Number of row buffer hits during reads
system.mem_ctrls.writeRowHits                    2825                       # Number of row buffer hits during writes
system.mem_ctrls.readRowHitRate                 86.38                       # Row buffer hit rate for reads
system.mem_ctrls.writeRowHitRate                91.93                       # Row buffer hit rate for writes
system.mem_ctrls.avgGap                      19018.41                       # Average gap between requests
system.mem_ctrls.pageHitRate                    88.12                       # Row buffer hit rate, read and write combined
system.mem_ctrls_0.actEnergy                  5193720                       # Energy for activate commands per rank (pJ)
system.mem_ctrls_0.preEnergy                  2833875                       # Energy for precharge commands per rank (pJ)
system.mem_ctrls_0.readEnergy                32767800                       # Energy for read commands per rank (pJ)
system.mem_ctrls_0.writeEnergy                5819040                       # Energy for write commands per rank (pJ)
system.mem_ctrls_0.refreshEnergy             18816720                       # Energy for refresh commands per rank (pJ)
system.mem_ctrls_0.actBackEnergy            179709030                       # Energy for active background per rank (pJ)
system.mem_ctrls_0.preBackEnergy             15371250                       # Energy for precharge background per rank (pJ)
system.mem_ctrls_0.totalEnergy              260511435                       # Total energy per rank (pJ)
system.mem_ctrls_0.averagePower            903.451728                       # Core power per rank (mW)
system.mem_ctrls_0.memoryStateTime::IDLE     23964750                       # Time in different power states
system.mem_ctrls_0.memoryStateTime::REF       9620000                       # Time in different power states
system.mem_ctrls_0.memoryStateTime::PRE_PDN            0                       # Time in different power states
system.mem_ctrls_0.memoryStateTime::ACT     254780250                       # Time in different power states
system.mem_ctrls_0.memoryStateTime::ACT_PDN            0                       # Time in different power states
system.mem_ctrls_1.actEnergy                  3182760                       # Energy for activate commands per rank (pJ)
system.mem_ctrls_1.preEnergy                  1736625                       # Energy for precharge commands per rank (pJ)
system.mem_ctrls_1.readEnergy                19094400                       # Energy for read commands per rank (pJ)
system.mem_ctrls_1.writeEnergy               13789440                       # Energy for write commands per rank (pJ)
system.mem_ctrls_1.refreshEnergy             18816720                       # Energy for refresh commands per rank (pJ)
system.mem_ctrls_1.actBackEnergy            164193345                       # Energy for active background per rank (pJ)
system.mem_ctrls_1.preBackEnergy             28981500                       # Energy for precharge background per rank (pJ)
system.mem_ctrls_1.totalEnergy              249794790                       # Total energy per rank (pJ)
system.mem_ctrls_1.averagePower            866.286482                       # Core power per rank (mW)
system.mem_ctrls_1.memoryStateTime::IDLE     47408750                       # Time in different power states
system.mem_ctrls_1.memoryStateTime::REF       9620000                       # Time in different power states
system.mem_ctrls_1.memoryStateTime::PRE_PDN            0                       # Time in different power states
system.mem_ctrls_1.memoryStateTime::ACT     231858250                       # Time in different power states
system.mem_ctrls_1.memoryStateTime::ACT_PDN            0                       # Time in different power states
system.cpu00.branchPred.lookups                 36801                       # Number of BP lookups
system.cpu00.branchPred.condPredicted           34291                       # Number of conditional branches predicted
system.cpu00.branchPred.condIncorrect            1680                       # Number of conditional branches incorrect
system.cpu00.branchPred.BTBLookups              31129                       # Number of BTB lookups
system.cpu00.branchPred.BTBHits                 30284                       # Number of BTB hits
system.cpu00.branchPred.BTBCorrect                  0                       # Number of correct BTB predictions (this stat may not work properly.
system.cpu00.branchPred.BTBHitPct           97.285489                       # BTB Hit Percentage
system.cpu00.branchPred.usedRAS                   867                       # Number of times the RAS was used to get a target.
system.cpu00.branchPred.RASInCorrect                7                       # Number of incorrect RAS predictions.
system.cpu_voltage_domain.voltage                   1                       # Voltage in Volts
system.cpu_clk_domain.clock                       500                       # Clock period in ticks
system.cpu00.dstage2_mmu.stage2_tlb.walker.walks            0                       # Table walker walks requested
system.cpu00.dstage2_mmu.stage2_tlb.walker.walkRequestOrigin_Requested::Data            0                       # Table walker requests started/completed, data/inst
system.cpu00.dstage2_mmu.stage2_tlb.walker.walkRequestOrigin_Requested::Inst            0                       # Table walker requests started/completed, data/inst
system.cpu00.dstage2_mmu.stage2_tlb.walker.walkRequestOrigin_Requested::total            0                       # Table walker requests started/completed, data/inst
system.cpu00.dstage2_mmu.stage2_tlb.walker.walkRequestOrigin_Completed::Data            0                       # Table walker requests started/completed, data/inst
system.cpu00.dstage2_mmu.stage2_tlb.walker.walkRequestOrigin_Completed::Inst            0                       # Table walker requests started/completed, data/inst
system.cpu00.dstage2_mmu.stage2_tlb.walker.walkRequestOrigin_Completed::total            0                       # Table walker requests started/completed, data/inst
system.cpu00.dstage2_mmu.stage2_tlb.walker.walkRequestOrigin::total            0                       # Table walker requests started/completed, data/inst
system.cpu00.dstage2_mmu.stage2_tlb.inst_hits            0                       # ITB inst hits
system.cpu00.dstage2_mmu.stage2_tlb.inst_misses            0                       # ITB inst misses
system.cpu00.dstage2_mmu.stage2_tlb.read_hits            0                       # DTB read hits
system.cpu00.dstage2_mmu.stage2_tlb.read_misses            0                       # DTB read misses
system.cpu00.dstage2_mmu.stage2_tlb.write_hits            0                       # DTB write hits
system.cpu00.dstage2_mmu.stage2_tlb.write_misses            0                       # DTB write misses
system.cpu00.dstage2_mmu.stage2_tlb.flush_tlb            0                       # Number of times complete TLB was flushed
system.cpu00.dstage2_mmu.stage2_tlb.flush_tlb_mva            0                       # Number of times TLB was flushed by MVA
system.cpu00.dstage2_mmu.stage2_tlb.flush_tlb_mva_asid            0                       # Number of times TLB was flushed by MVA & ASID
system.cpu00.dstage2_mmu.stage2_tlb.flush_tlb_asid            0                       # Number of times TLB was flushed by ASID
system.cpu00.dstage2_mmu.stage2_tlb.flush_entries            0                       # Number of entries that have been flushed from TLB
system.cpu00.dstage2_mmu.stage2_tlb.align_faults            0                       # Number of TLB faults due to alignment restrictions
system.cpu00.dstage2_mmu.stage2_tlb.prefetch_faults            0                       # Number of TLB faults due to prefetch
system.cpu00.dstage2_mmu.stage2_tlb.domain_faults            0                       # Number of TLB faults due to domain restrictions
system.cpu00.dstage2_mmu.stage2_tlb.perms_faults            0                       # Number of TLB faults due to permissions restrictions
system.cpu00.dstage2_mmu.stage2_tlb.read_accesses            0                       # DTB read accesses
system.cpu00.dstage2_mmu.stage2_tlb.write_accesses            0                       # DTB write accesses
system.cpu00.dstage2_mmu.stage2_tlb.inst_accesses            0                       # ITB inst accesses
system.cpu00.dstage2_mmu.stage2_tlb.hits            0                       # DTB hits
system.cpu00.dstage2_mmu.stage2_tlb.misses            0                       # DTB misses
system.cpu00.dstage2_mmu.stage2_tlb.accesses            0                       # DTB accesses
system.cpu00.dtb.walker.walks                       0                       # Table walker walks requested
system.cpu00.dtb.walker.walkRequestOrigin_Requested::Data            0                       # Table walker requests started/completed, data/inst
system.cpu00.dtb.walker.walkRequestOrigin_Requested::Inst            0                       # Table walker requests started/completed, data/inst
system.cpu00.dtb.walker.walkRequestOrigin_Requested::total            0                       # Table walker requests started/completed, data/inst
system.cpu00.dtb.walker.walkRequestOrigin_Completed::Data            0                       # Table walker requests started/completed, data/inst
system.cpu00.dtb.walker.walkRequestOrigin_Completed::Inst            0                       # Table walker requests started/completed, data/inst
system.cpu00.dtb.walker.walkRequestOrigin_Completed::total            0                       # Table walker requests started/completed, data/inst
system.cpu00.dtb.walker.walkRequestOrigin::total            0                       # Table walker requests started/completed, data/inst
system.cpu00.dtb.inst_hits                          0                       # ITB inst hits
system.cpu00.dtb.inst_misses                        0                       # ITB inst misses
system.cpu00.dtb.read_hits                          0                       # DTB read hits
system.cpu00.dtb.read_misses                        0                       # DTB read misses
system.cpu00.dtb.write_hits                         0                       # DTB write hits
system.cpu00.dtb.write_misses                       0                       # DTB write misses
system.cpu00.dtb.flush_tlb                          0                       # Number of times complete TLB was flushed
system.cpu00.dtb.flush_tlb_mva                      0                       # Number of times TLB was flushed by MVA
system.cpu00.dtb.flush_tlb_mva_asid                 0                       # Number of times TLB was flushed by MVA & ASID
system.cpu00.dtb.flush_tlb_asid                     0                       # Number of times TLB was flushed by ASID
system.cpu00.dtb.flush_entries                      0                       # Number of entries that have been flushed from TLB
system.cpu00.dtb.align_faults                       0                       # Number of TLB faults due to alignment restrictions
system.cpu00.dtb.prefetch_faults                    0                       # Number of TLB faults due to prefetch
system.cpu00.dtb.domain_faults                      0                       # Number of TLB faults due to domain restrictions
system.cpu00.dtb.perms_faults                       0                       # Number of TLB faults due to permissions restrictions
system.cpu00.dtb.read_accesses                      0                       # DTB read accesses
system.cpu00.dtb.write_accesses                     0                       # DTB write accesses
system.cpu00.dtb.inst_accesses                      0                       # ITB inst accesses
system.cpu00.dtb.hits                               0                       # DTB hits
system.cpu00.dtb.misses                             0                       # DTB misses
system.cpu00.dtb.accesses                           0                       # DTB accesses
system.cpu00.istage2_mmu.stage2_tlb.walker.walks            0                       # Table walker walks requested
system.cpu00.istage2_mmu.stage2_tlb.walker.walkRequestOrigin_Requested::Data            0                       # Table walker requests started/completed, data/inst
system.cpu00.istage2_mmu.stage2_tlb.walker.walkRequestOrigin_Requested::Inst            0                       # Table walker requests started/completed, data/inst
system.cpu00.istage2_mmu.stage2_tlb.walker.walkRequestOrigin_Requested::total            0                       # Table walker requests started/completed, data/inst
system.cpu00.istage2_mmu.stage2_tlb.walker.walkRequestOrigin_Completed::Data            0                       # Table walker requests started/completed, data/inst
system.cpu00.istage2_mmu.stage2_tlb.walker.walkRequestOrigin_Completed::Inst            0                       # Table walker requests started/completed, data/inst
system.cpu00.istage2_mmu.stage2_tlb.walker.walkRequestOrigin_Completed::total            0                       # Table walker requests started/completed, data/inst
system.cpu00.istage2_mmu.stage2_tlb.walker.walkRequestOrigin::total            0                       # Table walker requests started/completed, data/inst
system.cpu00.istage2_mmu.stage2_tlb.inst_hits            0                       # ITB inst hits
system.cpu00.istage2_mmu.stage2_tlb.inst_misses            0                       # ITB inst misses
system.cpu00.istage2_mmu.stage2_tlb.read_hits            0                       # DTB read hits
system.cpu00.istage2_mmu.stage2_tlb.read_misses            0                       # DTB read misses
system.cpu00.istage2_mmu.stage2_tlb.write_hits            0                       # DTB write hits
system.cpu00.istage2_mmu.stage2_tlb.write_misses            0                       # DTB write misses
system.cpu00.istage2_mmu.stage2_tlb.flush_tlb            0                       # Number of times complete TLB was flushed
system.cpu00.istage2_mmu.stage2_tlb.flush_tlb_mva            0                       # Number of times TLB was flushed by MVA
system.cpu00.istage2_mmu.stage2_tlb.flush_tlb_mva_asid            0                       # Number of times TLB was flushed by MVA & ASID
system.cpu00.istage2_mmu.stage2_tlb.flush_tlb_asid            0                       # Number of times TLB was flushed by ASID
system.cpu00.istage2_mmu.stage2_tlb.flush_entries            0                       # Number of entries that have been flushed from TLB
system.cpu00.istage2_mmu.stage2_tlb.align_faults            0                       # Number of TLB faults due to alignment restrictions
system.cpu00.istage2_mmu.stage2_tlb.prefetch_faults            0                       # Number of TLB faults due to prefetch
system.cpu00.istage2_mmu.stage2_tlb.domain_faults            0                       # Number of TLB faults due to domain restrictions
system.cpu00.istage2_mmu.stage2_tlb.perms_faults            0                       # Number of TLB faults due to permissions restrictions
system.cpu00.istage2_mmu.stage2_tlb.read_accesses            0                       # DTB read accesses
system.cpu00.istage2_mmu.stage2_tlb.write_accesses            0                       # DTB write accesses
system.cpu00.istage2_mmu.stage2_tlb.inst_accesses            0                       # ITB inst accesses
system.cpu00.istage2_mmu.stage2_tlb.hits            0                       # DTB hits
system.cpu00.istage2_mmu.stage2_tlb.misses            0                       # DTB misses
system.cpu00.istage2_mmu.stage2_tlb.accesses            0                       # DTB accesses
system.cpu00.itb.walker.walks                       0                       # Table walker walks requested
system.cpu00.itb.walker.walkRequestOrigin_Requested::Data            0                       # Table walker requests started/completed, data/inst
system.cpu00.itb.walker.walkRequestOrigin_Requested::Inst            0                       # Table walker requests started/completed, data/inst
system.cpu00.itb.walker.walkRequestOrigin_Requested::total            0                       # Table walker requests started/completed, data/inst
system.cpu00.itb.walker.walkRequestOrigin_Completed::Data            0                       # Table walker requests started/completed, data/inst
system.cpu00.itb.walker.walkRequestOrigin_Completed::Inst            0                       # Table walker requests started/completed, data/inst
system.cpu00.itb.walker.walkRequestOrigin_Completed::total            0                       # Table walker requests started/completed, data/inst
system.cpu00.itb.walker.walkRequestOrigin::total            0                       # Table walker requests started/completed, data/inst
system.cpu00.itb.inst_hits                          0                       # ITB inst hits
system.cpu00.itb.inst_misses                        0                       # ITB inst misses
system.cpu00.itb.read_hits                          0                       # DTB read hits
system.cpu00.itb.read_misses                        0                       # DTB read misses
system.cpu00.itb.write_hits                         0                       # DTB write hits
system.cpu00.itb.write_misses                       0                       # DTB write misses
system.cpu00.itb.flush_tlb                          0                       # Number of times complete TLB was flushed
system.cpu00.itb.flush_tlb_mva                      0                       # Number of times TLB was flushed by MVA
system.cpu00.itb.flush_tlb_mva_asid                 0                       # Number of times TLB was flushed by MVA & ASID
system.cpu00.itb.flush_tlb_asid                     0                       # Number of times TLB was flushed by ASID
system.cpu00.itb.flush_entries                      0                       # Number of entries that have been flushed from TLB
system.cpu00.itb.align_faults                       0                       # Number of TLB faults due to alignment restrictions
system.cpu00.itb.prefetch_faults                    0                       # Number of TLB faults due to prefetch
system.cpu00.itb.domain_faults                      0                       # Number of TLB faults due to domain restrictions
system.cpu00.itb.perms_faults                       0                       # Number of TLB faults due to permissions restrictions
system.cpu00.itb.read_accesses                      0                       # DTB read accesses
system.cpu00.itb.write_accesses                     0                       # DTB write accesses
system.cpu00.itb.inst_accesses                      0                       # ITB inst accesses
system.cpu00.itb.hits                               0                       # DTB hits
system.cpu00.itb.misses                             0                       # DTB misses
system.cpu00.itb.accesses                           0                       # DTB accesses
system.cpu00.workload.num_syscalls               1081                       # Number of system calls
system.cpu00.numCycles                         582578                       # number of cpu cycles simulated
system.cpu00.numWorkItemsStarted                    0                       # number of work items this cpu started
system.cpu00.numWorkItemsCompleted                  0                       # number of work items this cpu completed
system.cpu00.fetch.icacheStallCycles            16752                       # Number of cycles fetch is stalled on an Icache miss
system.cpu00.fetch.Insts                       410785                       # Number of instructions fetch has processed
system.cpu00.fetch.Branches                     36801                       # Number of branches that fetch encountered
system.cpu00.fetch.predictedBranches            31151                       # Number of branches that fetch has predicted taken
system.cpu00.fetch.Cycles                      521345                       # Number of cycles fetch has run and was not squashing or blocked
system.cpu00.fetch.SquashCycles                  3481                       # Number of cycles fetch has spent squashing
system.cpu00.fetch.MiscStallCycles                304                       # Number of cycles fetch has spent waiting on interrupts, or bad addresses, or out of MSHRs
system.cpu00.fetch.PendingTrapStallCycles          108                       # Number of stall cycles due to pending traps
system.cpu00.fetch.IcacheWaitRetryStallCycles          477                       # Number of stall cycles due to full MSHR
system.cpu00.fetch.CacheLines                  117083                       # Number of cache lines fetched
system.cpu00.fetch.IcacheSquashes                 362                       # Number of outstanding Icache misses that were squashed
system.cpu00.fetch.rateDist::samples           540726                       # Number of instructions fetched each cycle (Total)
system.cpu00.fetch.rateDist::mean            0.821094                       # Number of instructions fetched each cycle (Total)
system.cpu00.fetch.rateDist::stdev           1.205475                       # Number of instructions fetched each cycle (Total)
system.cpu00.fetch.rateDist::underflows             0      0.00%      0.00% # Number of instructions fetched each cycle (Total)
system.cpu00.fetch.rateDist::0                 336708     62.27%     62.27% # Number of instructions fetched each cycle (Total)
system.cpu00.fetch.rateDist::1                  77247     14.29%     76.56% # Number of instructions fetched each cycle (Total)
system.cpu00.fetch.rateDist::2                  13573      2.51%     79.07% # Number of instructions fetched each cycle (Total)
system.cpu00.fetch.rateDist::3                 113198     20.93%    100.00% # Number of instructions fetched each cycle (Total)
system.cpu00.fetch.rateDist::overflows              0      0.00%    100.00% # Number of instructions fetched each cycle (Total)
system.cpu00.fetch.rateDist::min_value              0                       # Number of instructions fetched each cycle (Total)
system.cpu00.fetch.rateDist::max_value              3                       # Number of instructions fetched each cycle (Total)
system.cpu00.fetch.rateDist::total             540726                       # Number of instructions fetched each cycle (Total)
system.cpu00.fetch.branchRate                0.063169                       # Number of branch fetches per cycle
system.cpu00.fetch.rate                      0.705116                       # Number of inst fetches per cycle
system.cpu00.decode.IdleCycles                  25180                       # Number of cycles decode is idle
system.cpu00.decode.BlockedCycles              339928                       # Number of cycles decode is blocked
system.cpu00.decode.RunCycles                  159500                       # Number of cycles decode is running
system.cpu00.decode.UnblockCycles               14705                       # Number of cycles decode is unblocking
system.cpu00.decode.SquashCycles                 1413                       # Number of cycles decode is squashing
system.cpu00.decode.BranchResolved                963                       # Number of times decode resolved a branch
system.cpu00.decode.BranchMispred                 347                       # Number of times decode detected a branch misprediction
system.cpu00.decode.DecodedInsts               426444                       # Number of instructions handled by decode
system.cpu00.decode.SquashedInsts                6379                       # Number of squashed instructions handled by decode
system.cpu00.rename.SquashCycles                 1413                       # Number of cycles rename is squashing
system.cpu00.rename.IdleCycles                  37359                       # Number of cycles rename is idle
system.cpu00.rename.BlockCycles                 60430                       # Number of cycles rename is blocking
system.cpu00.rename.serializeStallCycles        13002                       # count of cycles rename stalled for serializing inst
system.cpu00.rename.RunCycles                  160909                       # Number of cycles rename is running
system.cpu00.rename.UnblockCycles              267613                       # Number of cycles rename is unblocking
system.cpu00.rename.RenamedInsts               421179                       # Number of instructions processed by rename
system.cpu00.rename.SquashedInsts                2238                       # Number of squashed instructions processed by rename
system.cpu00.rename.ROBFullEvents                2211                       # Number of times rename has blocked due to ROB full
system.cpu00.rename.IQFullEvents                   20                       # Number of times rename has blocked due to IQ full
system.cpu00.rename.LQFullEvents                    1                       # Number of times rename has blocked due to LQ full
system.cpu00.rename.SQFullEvents               258486                       # Number of times rename has blocked due to SQ full
system.cpu00.rename.RenamedOperands            506992                       # Number of destination operands rename has renamed
system.cpu00.rename.RenameLookups             2103996                       # Number of register rename lookups that rename has made
system.cpu00.rename.int_rename_lookups         687136                       # Number of integer rename lookups
system.cpu00.rename.fp_rename_lookups              22                       # Number of floating rename lookups
system.cpu00.rename.CommittedMaps              491742                       # Number of HB maps that are committed
system.cpu00.rename.UndoneMaps                  15250                       # Number of HB maps that are undone due to squashing
system.cpu00.rename.serializingInsts              134                       # count of serializing insts renamed
system.cpu00.rename.tempSerializingInsts          133                       # count of temporary serializing insts renamed
system.cpu00.rename.skidInsts                   33870                       # count of insts added to the skid buffer
system.cpu00.memDep0.insertedLoads              73125                       # Number of loads inserted to the mem dependence unit.
system.cpu00.memDep0.insertedStores             47349                       # Number of stores inserted to the mem dependence unit.
system.cpu00.memDep0.conflictingLoads             251                       # Number of conflicting loads.
system.cpu00.memDep0.conflictingStores            107                       # Number of conflicting stores.
system.cpu00.iq.iqInstsAdded                   418713                       # Number of instructions added to the IQ (excludes non-spec)
system.cpu00.iq.iqNonSpecInstsAdded               270                       # Number of non-speculative instructions added to the IQ
system.cpu00.iq.iqInstsIssued                  414641                       # Number of instructions issued
system.cpu00.iq.iqSquashedInstsIssued             622                       # Number of squashed instructions issued
system.cpu00.iq.iqSquashedInstsExamined         11864                       # Number of squashed instructions iterated over during squash; mainly for profiling
system.cpu00.iq.iqSquashedOperandsExamined        31168                       # Number of squashed operands that are examined and possibly removed from graph
system.cpu00.iq.iqSquashedNonSpecRemoved           54                       # Number of squashed non-spec instructions that were removed
system.cpu00.iq.issued_per_cycle::samples       540726                       # Number of insts issued each cycle
system.cpu00.iq.issued_per_cycle::mean       0.766823                       # Number of insts issued each cycle
system.cpu00.iq.issued_per_cycle::stdev      1.204121                       # Number of insts issued each cycle
system.cpu00.iq.issued_per_cycle::underflows            0      0.00%      0.00% # Number of insts issued each cycle
system.cpu00.iq.issued_per_cycle::0            358849     66.36%     66.36% # Number of insts issued each cycle
system.cpu00.iq.issued_per_cycle::1             46948      8.68%     75.05% # Number of insts issued each cycle
system.cpu00.iq.issued_per_cycle::2             50150      9.27%     84.32% # Number of insts issued each cycle
system.cpu00.iq.issued_per_cycle::3             71726     13.26%     97.59% # Number of insts issued each cycle
system.cpu00.iq.issued_per_cycle::4             13050      2.41%    100.00% # Number of insts issued each cycle
system.cpu00.iq.issued_per_cycle::5                 3      0.00%    100.00% # Number of insts issued each cycle
system.cpu00.iq.issued_per_cycle::6                 0      0.00%    100.00% # Number of insts issued each cycle
system.cpu00.iq.issued_per_cycle::7                 0      0.00%    100.00% # Number of insts issued each cycle
system.cpu00.iq.issued_per_cycle::8                 0      0.00%    100.00% # Number of insts issued each cycle
system.cpu00.iq.issued_per_cycle::overflows            0      0.00%    100.00% # Number of insts issued each cycle
system.cpu00.iq.issued_per_cycle::min_value            0                       # Number of insts issued each cycle
system.cpu00.iq.issued_per_cycle::max_value            5                       # Number of insts issued each cycle
system.cpu00.iq.issued_per_cycle::total        540726                       # Number of insts issued each cycle
system.cpu00.iq.fu_full::No_OpClass                 0      0.00%      0.00% # attempts to use FU when none available
system.cpu00.iq.fu_full::IntAlu                 15560     22.02%     22.02% # attempts to use FU when none available
system.cpu00.iq.fu_full::IntMult                 1583      2.24%     24.27% # attempts to use FU when none available
system.cpu00.iq.fu_full::IntDiv                     0      0.00%     24.27% # attempts to use FU when none available
system.cpu00.iq.fu_full::FloatAdd                   0      0.00%     24.27% # attempts to use FU when none available
system.cpu00.iq.fu_full::FloatCmp                   0      0.00%     24.27% # attempts to use FU when none available
system.cpu00.iq.fu_full::FloatCvt                   0      0.00%     24.27% # attempts to use FU when none available
system.cpu00.iq.fu_full::FloatMult                  0      0.00%     24.27% # attempts to use FU when none available
system.cpu00.iq.fu_full::FloatDiv                   0      0.00%     24.27% # attempts to use FU when none available
system.cpu00.iq.fu_full::FloatSqrt                  0      0.00%     24.27% # attempts to use FU when none available
system.cpu00.iq.fu_full::SimdAdd                    0      0.00%     24.27% # attempts to use FU when none available
system.cpu00.iq.fu_full::SimdAddAcc                 0      0.00%     24.27% # attempts to use FU when none available
system.cpu00.iq.fu_full::SimdAlu                    0      0.00%     24.27% # attempts to use FU when none available
system.cpu00.iq.fu_full::SimdCmp                    0      0.00%     24.27% # attempts to use FU when none available
system.cpu00.iq.fu_full::SimdCvt                    0      0.00%     24.27% # attempts to use FU when none available
system.cpu00.iq.fu_full::SimdMisc                   0      0.00%     24.27% # attempts to use FU when none available
system.cpu00.iq.fu_full::SimdMult                   0      0.00%     24.27% # attempts to use FU when none available
system.cpu00.iq.fu_full::SimdMultAcc                0      0.00%     24.27% # attempts to use FU when none available
[...]
system.membus.pkt_count_system.cpu07.icache.mem_side::system.mem_ctrls.port          106                       # Packet count per connected master and slave (bytes)
system.membus.pkt_count_system.cpu07.dcache.mem_side::system.mem_ctrls.port         1817                       # Packet count per connected master and slave (bytes)
system.membus.pkt_count_system.cpu08.icache.mem_side::system.mem_ctrls.port          106                       # Packet count per connected master and slave (bytes)
system.membus.pkt_count_system.cpu08.dcache.mem_side::system.mem_ctrls.port         1832                       # Packet count per connected master and slave (bytes)
system.membus.pkt_count_system.cpu09.icache.mem_side::system.mem_ctrls.port          110                       # Packet count per connected master and slave (bytes)
system.membus.pkt_count_system.cpu09.dcache.mem_side::system.mem_ctrls.port         1831                       # Packet count per connected master and slave (bytes)
system.membus.pkt_count_system.cpu10.icache.mem_side::system.mem_ctrls.port          112                       # Packet count per connected master and slave (bytes)
system.membus.pkt_count_system.cpu10.dcache.mem_side::system.mem_ctrls.port         1888                       # Packet count per connected master and slave (bytes)
system.membus.pkt_count_system.cpu11.icache.mem_side::system.mem_ctrls.port          110                       # Packet count per connected master and slave (bytes)
system.membus.pkt_count_system.cpu11.dcache.mem_side::system.mem_ctrls.port         1885                       # Packet count per connected master and slave (bytes)
system.membus.pkt_count_system.cpu12.icache.mem_side::system.mem_ctrls.port          110                       # Packet count per connected master and slave (bytes)
system.membus.pkt_count_system.cpu12.dcache.mem_side::system.mem_ctrls.port         1811                       # Packet count per connected master and slave (bytes)
system.membus.pkt_count_system.cpu13.icache.mem_side::system.mem_ctrls.port          114                       # Packet count per connected master and slave (bytes)
system.membus.pkt_count_system.cpu13.dcache.mem_side::system.mem_ctrls.port         1810                       # Packet count per connected master and slave (bytes)
system.membus.pkt_count_system.cpu14.icache.mem_side::system.mem_ctrls.port          114                       # Packet count per connected master and slave (bytes)
system.membus.pkt_count_system.cpu14.dcache.mem_side::system.mem_ctrls.port         1830                       # Packet count per connected master and slave (bytes)
system.membus.pkt_count_system.cpu15.icache.mem_side::system.mem_ctrls.port          114                       # Packet count per connected master and slave (bytes)
system.membus.pkt_count_system.cpu15.dcache.mem_side::system.mem_ctrls.port         1839                       # Packet count per connected master and slave (bytes)
system.membus.pkt_count::total                  39120                       # Packet count per connected master and slave (bytes)
system.membus.pkt_size_system.cpu00.icache.mem_side::system.mem_ctrls.port        40128                       # Cumulative packet size per connected master and slave (bytes)
system.membus.pkt_size_system.cpu00.dcache.mem_side::system.mem_ctrls.port       355776                       # Cumulative packet size per connected master and slave (bytes)
system.membus.pkt_size_system.cpu01.icache.mem_side::system.mem_ctrls.port         3392                       # Cumulative packet size per connected master and slave (bytes)
system.membus.pkt_size_system.cpu01.dcache.mem_side::system.mem_ctrls.port        32512                       # Cumulative packet size per connected master and slave (bytes)
system.membus.pkt_size_system.cpu02.icache.mem_side::system.mem_ctrls.port         3392                       # Cumulative packet size per connected master and slave (bytes)
system.membus.pkt_size_system.cpu02.dcache.mem_side::system.mem_ctrls.port        33984                       # Cumulative packet size per connected master and slave (bytes)
system.membus.pkt_size_system.cpu03.icache.mem_side::system.mem_ctrls.port         3392                       # Cumulative packet size per connected master and slave (bytes)
system.membus.pkt_size_system.cpu03.dcache.mem_side::system.mem_ctrls.port        33216                       # Cumulative packet size per connected master and slave (bytes)
system.membus.pkt_size_system.cpu04.icache.mem_side::system.mem_ctrls.port         3328                       # Cumulative packet size per connected master and slave (bytes)
system.membus.pkt_size_system.cpu04.dcache.mem_side::system.mem_ctrls.port        33344                       # Cumulative packet size per connected master and slave (bytes)
system.membus.pkt_size_system.cpu05.icache.mem_side::system.mem_ctrls.port         3328                       # Cumulative packet size per connected master and slave (bytes)
system.membus.pkt_size_system.cpu05.dcache.mem_side::system.mem_ctrls.port        33472                       # Cumulative packet size per connected master and slave (bytes)
system.membus.pkt_size_system.cpu06.icache.mem_side::system.mem_ctrls.port         3392                       # Cumulative packet size per connected master and slave (bytes)
system.membus.pkt_size_system.cpu06.dcache.mem_side::system.mem_ctrls.port        35392                       # Cumulative packet size per connected master and slave (bytes)
system.membus.pkt_size_system.cpu07.icache.mem_side::system.mem_ctrls.port         3392                       # Cumulative packet size per connected master and slave (bytes)
system.membus.pkt_size_system.cpu07.dcache.mem_side::system.mem_ctrls.port        35584                       # Cumulative packet size per connected master and slave (bytes)
system.membus.pkt_size_system.cpu08.icache.mem_side::system.mem_ctrls.port         3392                       # Cumulative packet size per connected master and slave (bytes)
system.membus.pkt_size_system.cpu08.dcache.mem_side::system.mem_ctrls.port        36480                       # Cumulative packet size per connected master and slave (bytes)
system.membus.pkt_size_system.cpu09.icache.mem_side::system.mem_ctrls.port         3520                       # Cumulative packet size per connected master and slave (bytes)
system.membus.pkt_size_system.cpu09.dcache.mem_side::system.mem_ctrls.port        36672                       # Cumulative packet size per connected master and slave (bytes)
system.membus.pkt_size_system.cpu10.icache.mem_side::system.mem_ctrls.port         3584                       # Cumulative packet size per connected master and slave (bytes)
system.membus.pkt_size_system.cpu10.dcache.mem_side::system.mem_ctrls.port        39808                       # Cumulative packet size per connected master and slave (bytes)
system.membus.pkt_size_system.cpu11.icache.mem_side::system.mem_ctrls.port         3520                       # Cumulative packet size per connected master and slave (bytes)
system.membus.pkt_size_system.cpu11.dcache.mem_side::system.mem_ctrls.port        39872                       # Cumulative packet size per connected master and slave (bytes)
system.membus.pkt_size_system.cpu12.icache.mem_side::system.mem_ctrls.port         3520                       # Cumulative packet size per connected master and slave (bytes)
system.membus.pkt_size_system.cpu12.dcache.mem_side::system.mem_ctrls.port        34880                       # Cumulative packet size per connected master and slave (bytes)
system.membus.pkt_size_system.cpu13.icache.mem_side::system.mem_ctrls.port         3648                       # Cumulative packet size per connected master and slave (bytes)
system.membus.pkt_size_system.cpu13.dcache.mem_side::system.mem_ctrls.port        35968                       # Cumulative packet size per connected master and slave (bytes)
system.membus.pkt_size_system.cpu14.icache.mem_side::system.mem_ctrls.port         3648                       # Cumulative packet size per connected master and slave (bytes)
system.membus.pkt_size_system.cpu14.dcache.mem_side::system.mem_ctrls.port        35456                       # Cumulative packet size per connected master and slave (bytes)
system.membus.pkt_size_system.cpu15.icache.mem_side::system.mem_ctrls.port         3648                       # Cumulative packet size per connected master and slave (bytes)
system.membus.pkt_size_system.cpu15.dcache.mem_side::system.mem_ctrls.port        35520                       # Cumulative packet size per connected master and slave (bytes)
system.membus.pkt_size::total                  980160                       # Cumulative packet size per connected master and slave (bytes)
system.membus.snoops                            14030                       # Total snoops (count)
system.membus.snoop_fanout::samples             29406                       # Request fanout histogram
system.membus.snoop_fanout::mean                   31                       # Request fanout histogram
system.membus.snoop_fanout::stdev                   0                       # Request fanout histogram
system.membus.snoop_fanout::underflows              0      0.00%      0.00% # Request fanout histogram
system.membus.snoop_fanout::0                       0      0.00%      0.00% # Request fanout histogram
system.membus.snoop_fanout::1                       0      0.00%      0.00% # Request fanout histogram
system.membus.snoop_fanout::2                       0      0.00%      0.00% # Request fanout histogram
system.membus.snoop_fanout::3                       0      0.00%      0.00% # Request fanout histogram
system.membus.snoop_fanout::4                       0      0.00%      0.00% # Request fanout histogram
system.membus.snoop_fanout::5                       0      0.00%      0.00% # Request fanout histogram
system.membus.snoop_fanout::6                       0      0.00%      0.00% # Request fanout histogram
system.membus.snoop_fanout::7                       0      0.00%      0.00% # Request fanout histogram
system.membus.snoop_fanout::8                       0      0.00%      0.00% # Request fanout histogram
system.membus.snoop_fanout::9                       0      0.00%      0.00% # Request fanout histogram
system.membus.snoop_fanout::10                      0      0.00%      0.00% # Request fanout histogram
system.membus.snoop_fanout::11                      0      0.00%      0.00% # Request fanout histogram
system.membus.snoop_fanout::12                      0      0.00%      0.00% # Request fanout histogram
system.membus.snoop_fanout::13                      0      0.00%      0.00% # Request fanout histogram
system.membus.snoop_fanout::14                      0      0.00%      0.00% # Request fanout histogram
system.membus.snoop_fanout::15                      0      0.00%      0.00% # Request fanout histogram
system.membus.snoop_fanout::16                      0      0.00%      0.00% # Request fanout histogram
system.membus.snoop_fanout::17                      0      0.00%      0.00% # Request fanout histogram
system.membus.snoop_fanout::18                      0      0.00%      0.00% # Request fanout histogram
system.membus.snoop_fanout::19                      0      0.00%      0.00% # Request fanout histogram
system.membus.snoop_fanout::20                      0      0.00%      0.00% # Request fanout histogram
system.membus.snoop_fanout::21                      0      0.00%      0.00% # Request fanout histogram
system.membus.snoop_fanout::22                      0      0.00%      0.00% # Request fanout histogram
system.membus.snoop_fanout::23                      0      0.00%      0.00% # Request fanout histogram
system.membus.snoop_fanout::24                      0      0.00%      0.00% # Request fanout histogram
system.membus.snoop_fanout::25                      0      0.00%      0.00% # Request fanout histogram
system.membus.snoop_fanout::26                      0      0.00%      0.00% # Request fanout histogram
system.membus.snoop_fanout::27                      0      0.00%      0.00% # Request fanout histogram
system.membus.snoop_fanout::28                      0      0.00%      0.00% # Request fanout histogram
system.membus.snoop_fanout::29                      0      0.00%      0.00% # Request fanout histogram
system.membus.snoop_fanout::30                      0      0.00%      0.00% # Request fanout histogram
system.membus.snoop_fanout::31                  29406    100.00%    100.00% # Request fanout histogram
system.membus.snoop_fanout::32                      0      0.00%    100.00% # Request fanout histogram
system.membus.snoop_fanout::overflows               0      0.00%    100.00% # Request fanout histogram
system.membus.snoop_fanout::min_value              31                       # Request fanout histogram
system.membus.snoop_fanout::max_value              31                       # Request fanout histogram
system.membus.snoop_fanout::total               29406                       # Request fanout histogram
system.membus.reqLayer0.occupancy            55152999                       # Layer occupancy (ticks)
system.membus.reqLayer0.utilization              18.9                       # Layer utilization (%)
system.membus.respLayer1.occupancy            3335250                       # Layer occupancy (ticks)
system.membus.respLayer1.utilization              1.1                       # Layer utilization (%)
system.membus.respLayer2.occupancy           18676231                       # Layer occupancy (ticks)
system.membus.respLayer2.utilization              6.4                       # Layer utilization (%)
system.membus.respLayer5.occupancy             278750                       # Layer occupancy (ticks)
system.membus.respLayer5.utilization              0.1                       # Layer utilization (%)
system.membus.respLayer6.occupancy            5896175                       # Layer occupancy (ticks)
system.membus.respLayer6.utilization              2.0                       # Layer utilization (%)
system.membus.respLayer9.occupancy             284000                       # Layer occupancy (ticks)
system.membus.respLayer9.utilization              0.1                       # Layer utilization (%)
system.membus.respLayer10.occupancy           6242680                       # Layer occupancy (ticks)
system.membus.respLayer10.utilization             2.1                       # Layer utilization (%)
system.membus.respLayer13.occupancy            282500                       # Layer occupancy (ticks)
system.membus.respLayer13.utilization             0.1                       # Layer utilization (%)
system.membus.respLayer14.occupancy           6224161                       # Layer occupancy (ticks)
system.membus.respLayer14.utilization             2.1                       # Layer utilization (%)
system.membus.respLayer17.occupancy            274500                       # Layer occupancy (ticks)
system.membus.respLayer17.utilization             0.1                       # Layer utilization (%)
system.membus.respLayer18.occupancy           6397387                       # Layer occupancy (ticks)
system.membus.respLayer18.utilization             2.2                       # Layer utilization (%)
system.membus.respLayer21.occupancy            275500                       # Layer occupancy (ticks)
system.membus.respLayer21.utilization             0.1                       # Layer utilization (%)
system.membus.respLayer22.occupancy           6290159                       # Layer occupancy (ticks)
system.membus.respLayer22.utilization             2.2                       # Layer utilization (%)
system.membus.respLayer25.occupancy            281500                       # Layer occupancy (ticks)
system.membus.respLayer25.utilization             0.1                       # Layer utilization (%)
system.membus.respLayer26.occupancy           6460402                       # Layer occupancy (ticks)
system.membus.respLayer26.utilization             2.2                       # Layer utilization (%)
system.membus.respLayer29.occupancy            282250                       # Layer occupancy (ticks)
system.membus.respLayer29.utilization             0.1                       # Layer utilization (%)
system.membus.respLayer30.occupancy           6402389                       # Layer occupancy (ticks)
system.membus.respLayer30.utilization             2.2                       # Layer utilization (%)
system.membus.respLayer33.occupancy            281750                       # Layer occupancy (ticks)
system.membus.respLayer33.utilization             0.1                       # Layer utilization (%)
system.membus.respLayer34.occupancy           6384927                       # Layer occupancy (ticks)
system.membus.respLayer34.utilization             2.2                       # Layer utilization (%)
system.membus.respLayer37.occupancy            294250                       # Layer occupancy (ticks)
system.membus.respLayer37.utilization             0.1                       # Layer utilization (%)
system.membus.respLayer38.occupancy           6380904                       # Layer occupancy (ticks)
system.membus.respLayer38.utilization             2.2                       # Layer utilization (%)
system.membus.respLayer41.occupancy            296750                       # Layer occupancy (ticks)
system.membus.respLayer41.utilization             0.1                       # Layer utilization (%)
system.membus.respLayer42.occupancy           6419163                       # Layer occupancy (ticks)
system.membus.respLayer42.utilization             2.2                       # Layer utilization (%)
system.membus.respLayer45.occupancy            291500                       # Layer occupancy (ticks)
system.membus.respLayer45.utilization             0.1                       # Layer utilization (%)
system.membus.respLayer46.occupancy           6389941                       # Layer occupancy (ticks)
system.membus.respLayer46.utilization             2.2                       # Layer utilization (%)
system.membus.respLayer49.occupancy            291250                       # Layer occupancy (ticks)
system.membus.respLayer49.utilization             0.1                       # Layer utilization (%)
system.membus.respLayer50.occupancy           6399408                       # Layer occupancy (ticks)
system.membus.respLayer50.utilization             2.2                       # Layer utilization (%)
system.membus.respLayer53.occupancy            305500                       # Layer occupancy (ticks)
system.membus.respLayer53.utilization             0.1                       # Layer utilization (%)
system.membus.respLayer54.occupancy           6306167                       # Layer occupancy (ticks)
system.membus.respLayer54.utilization             2.2                       # Layer utilization (%)
system.membus.respLayer57.occupancy            306750                       # Layer occupancy (ticks)
system.membus.respLayer57.utilization             0.1                       # Layer utilization (%)
system.membus.respLayer58.occupancy           6435694                       # Layer occupancy (ticks)
system.membus.respLayer58.utilization             2.2                       # Layer utilization (%)
system.membus.respLayer61.occupancy            300500                       # Layer occupancy (ticks)
system.membus.respLayer61.utilization             0.1                       # Layer utilization (%)
system.membus.respLayer62.occupancy           6481412                       # Layer occupancy (ticks)
system.membus.respLayer62.utilization             2.2                       # Layer utilization (%)

---------- End Simulation Statistics   ----------
