
---------- Begin Simulation Statistics ----------
sim_seconds                                  0.000485                       # Number of seconds simulated
sim_ticks                                   485006500                       # Number of ticks simulated
final_tick                                  485006500                       # Number of ticks from beginning of simulation (restored from checkpoints and never reset)
sim_freq                                 1000000000000                       # Frequency of simulated ticks
host_inst_rate                                 199919                       # Simulator instruction rate (inst/s)
host_op_rate                                   201819                       # Simulator op (including micro ops) rate (op/s)
host_tick_rate                               22193099                       # Simulator tick rate (ticks/s)
host_mem_usage                                 658712                       # Number of bytes of host memory used
host_seconds                                    21.86                       # Real time elapsed on the host
sim_insts                                     4369013                       # Number of instructions simulated
sim_ops                                       4410542                       # Number of ops (including micro ops) simulated
system.voltage_domain.voltage                       1                       # Voltage in Volts
system.clk_domain.clock                          1000                       # Clock period in ticks
system.mem_ctrls.bytes_read::cpu0.inst          40256                       # Number of bytes read from this memory
system.mem_ctrls.bytes_read::cpu0.data         342784                       # Number of bytes read from this memory
system.mem_ctrls.bytes_read::cpu1.inst           3648                       # Number of bytes read from this memory
system.mem_ctrls.bytes_read::cpu1.data          70272                       # Number of bytes read from this memory
system.mem_ctrls.bytes_read::cpu2.inst           3648                       # Number of bytes read from this memory
system.mem_ctrls.bytes_read::cpu2.data          79488                       # Number of bytes read from this memory
system.mem_ctrls.bytes_read::cpu3.inst           3648                       # Number of bytes read from this memory
system.mem_ctrls.bytes_read::cpu3.data          69504                       # Number of bytes read from this memory
system.mem_ctrls.bytes_read::total             613248                       # Number of bytes read from this memory
system.mem_ctrls.bytes_inst_read::cpu0.inst        40256                       # Number of instructions bytes read from this memory
system.mem_ctrls.bytes_inst_read::cpu1.inst         3648                       # Number of instructions bytes read from this memory
system.mem_ctrls.bytes_inst_read::cpu2.inst         3648                       # Number of instructions bytes read from this memory
system.mem_ctrls.bytes_inst_read::cpu3.inst         3648                       # Number of instructions bytes read from this memory
system.mem_ctrls.bytes_inst_read::total         51200                       # Number of instructions bytes read from this memory
system.mem_ctrls.bytes_written::writebacks       368448                       # Number of bytes written to this memory
system.mem_ctrls.bytes_written::total          368448                       # Number of bytes written to this memory
system.mem_ctrls.num_reads::cpu0.inst             629                       # Number of read requests responded to by this memory
system.mem_ctrls.num_reads::cpu0.data            5356                       # Number of read requests responded to by this memory
system.mem_ctrls.num_reads::cpu1.inst              57                       # Number of read requests responded to by this memory
system.mem_ctrls.num_reads::cpu1.data            1098                       # Number of read requests responded to by this memory
system.mem_ctrls.num_reads::cpu2.inst              57                       # Number of read requests responded to by this memory
system.mem_ctrls.num_reads::cpu2.data            1242                       # Number of read requests responded to by this memory
system.mem_ctrls.num_reads::cpu3.inst              57                       # Number of read requests responded to by this memory
system.mem_ctrls.num_reads::cpu3.data            1086                       # Number of read requests responded to by this memory
system.mem_ctrls.num_reads::total                9582                       # Number of read requests responded to by this memory
system.mem_ctrls.num_writes::writebacks          5757                       # Number of write requests responded to by this memory
system.mem_ctrls.num_writes::total               5757                       # Number of write requests responded to by this memory
system.mem_ctrls.bw_read::cpu0.inst          83000949                       # Total read bandwidth from this memory (bytes/s)
system.mem_ctrls.bw_read::cpu0.data         706761662                       # Total read bandwidth from this memory (bytes/s)
system.mem_ctrls.bw_read::cpu1.inst           7521549                       # Total read bandwidth from this memory (bytes/s)
system.mem_ctrls.bw_read::cpu1.data         144888780                       # Total read bandwidth from this memory (bytes/s)
system.mem_ctrls.bw_read::cpu2.inst           7521549                       # Total read bandwidth from this memory (bytes/s)
system.mem_ctrls.bw_read::cpu2.data         163890587                       # Total read bandwidth from this memory (bytes/s)
system.mem_ctrls.bw_read::cpu3.inst           7521549                       # Total read bandwidth from this memory (bytes/s)
system.mem_ctrls.bw_read::cpu3.data         143305296                       # Total read bandwidth from this memory (bytes/s)
system.mem_ctrls.bw_read::total            1264411920                       # Total read bandwidth from this memory (bytes/s)
system.mem_ctrls.bw_inst_read::cpu0.inst     83000949                       # Instruction read bandwidth from this memory (bytes/s)
system.mem_ctrls.bw_inst_read::cpu1.inst      7521549                       # Instruction read bandwidth from this memory (bytes/s)
system.mem_ctrls.bw_inst_read::cpu2.inst      7521549                       # Instruction read bandwidth from this memory (bytes/s)
system.mem_ctrls.bw_inst_read::cpu3.inst      7521549                       # Instruction read bandwidth from this memory (bytes/s)
system.mem_ctrls.bw_inst_read::total        105565596                       # Instruction read bandwidth from this memory (bytes/s)
system.mem_ctrls.bw_write::writebacks       759676417                       # Write bandwidth from this memory (bytes/s)
system.mem_ctrls.bw_write::total            759676417                       # Write bandwidth from this memory (bytes/s)
system.mem_ctrls.bw_total::writebacks       759676417                       # Total bandwidth to/from this memory (bytes/s)
system.mem_ctrls.bw_total::cpu0.inst         83000949                       # Total bandwidth to/from this memory (bytes/s)
system.mem_ctrls.bw_total::cpu0.data        706761662                       # Total bandwidth to/from this memory (bytes/s)
system.mem_ctrls.bw_total::cpu1.inst          7521549                       # Total bandwidth to/from this memory (bytes/s)
system.mem_ctrls.bw_total::cpu1.data        144888780                       # Total bandwidth to/from this memory (bytes/s)
system.mem_ctrls.bw_total::cpu2.inst          7521549                       # Total bandwidth to/from this memory (bytes/s)
system.mem_ctrls.bw_total::cpu2.data        163890587                       # Total bandwidth to/from this memory (bytes/s)
system.mem_ctrls.bw_total::cpu3.inst          7521549                       # Total bandwidth to/from this memory (bytes/s)
system.mem_ctrls.bw_total::cpu3.data        143305296                       # Total bandwidth to/from this memory (bytes/s)
system.mem_ctrls.bw_total::total           2024088337                       # Total bandwidth to/from this memory (bytes/s)
system.mem_ctrls.readReqs                        9583                       # Number of read requests accepted
system.mem_ctrls.writeReqs                       5757                       # Number of write requests accepted
system.mem_ctrls.readBursts                      9583                       # Number of DRAM read bursts, including those serviced by the write queue
system.mem_ctrls.writeBursts                     5757                       # Number of DRAM write bursts, including those merged in the write queue
system.mem_ctrls.bytesReadDRAM                 330880                       # Total number of bytes read from DRAM
system.mem_ctrls.bytesReadWrQ                  282432                       # Total number of bytes read from write queue
system.mem_ctrls.bytesWritten                  165376                       # Total number of bytes written to DRAM
system.mem_ctrls.bytesReadSys                  613312                       # Total read bytes from the system interface side
system.mem_ctrls.bytesWrittenSys               368448                       # Total written bytes from the system interface side
system.mem_ctrls.servicedByWrQ                   4413                       # Number of DRAM read bursts serviced by the write queue
system.mem_ctrls.mergedWrBursts                  3142                       # Number of DRAM write bursts merged with an existing one
system.mem_ctrls.neitherReadNorWriteReqs           14                       # Number of requests that are neither read nor write
system.mem_ctrls.perBankRdBursts::0               194                       # Per bank write bursts
system.mem_ctrls.perBankRdBursts::1               287                       # Per bank write bursts
system.mem_ctrls.perBankRdBursts::2               183                       # Per bank write bursts
system.mem_ctrls.perBankRdBursts::3               673                       # Per bank write bursts
system.mem_ctrls.perBankRdBursts::4               354                       # Per bank write bursts
system.mem_ctrls.perBankRdBursts::5               496                       # Per bank write bursts
system.mem_ctrls.perBankRdBursts::6               406                       # Per bank write bursts
system.mem_ctrls.perBankRdBursts::7               423                       # Per bank write bursts
system.mem_ctrls.perBankRdBursts::8               280                       # Per bank write bursts
system.mem_ctrls.perBankRdBursts::9               288                       # Per bank write bursts
system.mem_ctrls.perBankRdBursts::10              256                       # Per bank write bursts
system.mem_ctrls.perBankRdBursts::11              282                       # Per bank write bursts
system.mem_ctrls.perBankRdBursts::12              273                       # Per bank write bursts
system.mem_ctrls.perBankRdBursts::13              307                       # Per bank write bursts
system.mem_ctrls.perBankRdBursts::14              305                       # Per bank write bursts
system.mem_ctrls.perBankRdBursts::15              163                       # Per bank write bursts
system.mem_ctrls.perBankWrBursts::0                 6                       # Per bank write bursts
system.mem_ctrls.perBankWrBursts::1                32                       # Per bank write bursts
system.mem_ctrls.perBankWrBursts::2                59                       # Per bank write bursts
system.mem_ctrls.perBankWrBursts::3               235                       # Per bank write bursts
system.mem_ctrls.perBankWrBursts::4               142                       # Per bank write bursts
system.mem_ctrls.perBankWrBursts::5               157                       # Per bank write bursts
system.mem_ctrls.perBankWrBursts::6               136                       # Per bank write bursts
system.mem_ctrls.perBankWrBursts::7               246                       # Per bank write bursts
system.mem_ctrls.perBankWrBursts::8               140                       # Per bank write bursts
system.mem_ctrls.perBankWrBursts::9               130                       # Per bank write bursts
system.mem_ctrls.perBankWrBursts::10              129                       # Per bank write bursts
system.mem_ctrls.perBankWrBursts::11              268                       # Per bank write bursts
system.mem_ctrls.perBankWrBursts::12              274                       # Per bank write bursts
system.mem_ctrls.perBankWrBursts::13              278                       # Per bank write bursts
system.mem_ctrls.perBankWrBursts::14              275                       # Per bank write bursts
system.mem_ctrls.perBankWrBursts::15               77                       # Per bank write bursts
system.mem_ctrls.numRdRetry                         0                       # Number of times read queue was full causing retry
system.mem_ctrls.numWrRetry                         0                       # Number of times write queue was full causing retry
system.mem_ctrls.totGap                     485004000                       # Total gap between requests
system.mem_ctrls.readPktSize::0                     0                       # Read request sizes (log2)
system.mem_ctrls.readPktSize::1                     0                       # Read request sizes (log2)
system.mem_ctrls.readPktSize::2                     0                       # Read request sizes (log2)
system.mem_ctrls.readPktSize::3                     0                       # Read request sizes (log2)
system.mem_ctrls.readPktSize::4                     0                       # Read request sizes (log2)
system.mem_ctrls.readPktSize::5                     0                       # Read request sizes (log2)
system.mem_ctrls.readPktSize::6                  9583                       # Read request sizes (log2)
system.mem_ctrls.writePktSize::0                    0                       # Write request sizes (log2)
system.mem_ctrls.writePktSize::1                    0                       # Write request sizes (log2)
system.mem_ctrls.writePktSize::2                    0                       # Write request sizes (log2)
system.mem_ctrls.writePktSize::3                    0                       # Write request sizes (log2)
system.mem_ctrls.writePktSize::4                    0                       # Write request sizes (log2)
system.mem_ctrls.writePktSize::5                    0                       # Write request sizes (log2)
system.mem_ctrls.writePktSize::6                 5757                       # Write request sizes (log2)
system.mem_ctrls.rdQLenPdf::0                    4373                       # What read queue length does an incoming req see
system.mem_ctrls.rdQLenPdf::1                     485                       # What read queue length does an incoming req see
system.mem_ctrls.rdQLenPdf::2                     155                       # What read queue length does an incoming req see
system.mem_ctrls.rdQLenPdf::3                      71                       # What read queue length does an incoming req see
system.mem_ctrls.rdQLenPdf::4                      46                       # What read queue length does an incoming req see
system.mem_ctrls.rdQLenPdf::5                      23                       # What read queue length does an incoming req see
system.mem_ctrls.rdQLenPdf::6                      10                       # What read queue length does an incoming req see
system.mem_ctrls.rdQLenPdf::7                       4                       # What read queue length does an incoming req see
system.mem_ctrls.rdQLenPdf::8                       1                       # What read queue length does an incoming req see
system.mem_ctrls.rdQLenPdf::9                       1                       # What read queue length does an incoming req see
system.mem_ctrls.rdQLenPdf::10                      1                       # What read queue length does an incoming req see
system.mem_ctrls.rdQLenPdf::11                      0                       # What read queue length does an incoming req see
system.mem_ctrls.rdQLenPdf::12                      0                       # What read queue length does an incoming req see
system.mem_ctrls.rdQLenPdf::13                      0                       # What read queue length does an incoming req see
system.mem_ctrls.rdQLenPdf::14                      0                       # What read queue length does an incoming req see
system.mem_ctrls.rdQLenPdf::15                      0                       # What read queue length does an incoming req see
system.mem_ctrls.rdQLenPdf::16                      0                       # What read queue length does an incoming req see
system.mem_ctrls.rdQLenPdf::17                      0                       # What read queue length does an incoming req see
system.mem_ctrls.rdQLenPdf::18                      0                       # What read queue length does an incoming req see
system.mem_ctrls.rdQLenPdf::19                      0                       # What read queue length does an incoming req see
system.mem_ctrls.rdQLenPdf::20                      0                       # What read queue length does an incoming req see
system.mem_ctrls.rdQLenPdf::21                      0                       # What read queue length does an incoming req see
system.mem_ctrls.rdQLenPdf::22                      0                       # What read queue length does an incoming req see
system.mem_ctrls.rdQLenPdf::23                      0                       # What read queue length does an incoming req see
system.mem_ctrls.rdQLenPdf::24                      0                       # What read queue length does an incoming req see
system.mem_ctrls.rdQLenPdf::25                      0                       # What read queue length does an incoming req see
system.mem_ctrls.rdQLenPdf::26                      0                       # What read queue length does an incoming req see
system.mem_ctrls.rdQLenPdf::27                      0                       # What read queue length does an incoming req see
system.mem_ctrls.rdQLenPdf::28                      0                       # What read queue length does an incoming req see
system.mem_ctrls.rdQLenPdf::29                      0                       # What read queue length does an incoming req see
system.mem_ctrls.rdQLenPdf::30                      0                       # What read queue length does an incoming req see
system.mem_ctrls.rdQLenPdf::31                      0                       # What read queue length does an incoming req see
system.mem_ctrls.wrQLenPdf::0                       1                       # What write queue length does an incoming req see
system.mem_ctrls.wrQLenPdf::1                       1                       # What write queue length does an incoming req see
system.mem_ctrls.wrQLenPdf::2                       1                       # What write queue length does an incoming req see
system.mem_ctrls.wrQLenPdf::3                       1                       # What write queue length does an incoming req see
system.mem_ctrls.wrQLenPdf::4                       1                       # What write queue length does an incoming req see
system.mem_ctrls.wrQLenPdf::5                       1                       # What write queue length does an incoming req see
system.mem_ctrls.wrQLenPdf::6                       1                       # What write queue length does an incoming req see
system.mem_ctrls.wrQLenPdf::7                       1                       # What write queue length does an incoming req see
system.mem_ctrls.wrQLenPdf::8                       1                       # What write queue length does an incoming req see
system.mem_ctrls.wrQLenPdf::9                       1                       # What write queue length does an incoming req see
system.mem_ctrls.wrQLenPdf::10                      1                       # What write queue length does an incoming req see
system.mem_ctrls.wrQLenPdf::11                      1                       # What write queue length does an incoming req see
system.mem_ctrls.wrQLenPdf::12                      1                       # What write queue length does an incoming req see
system.mem_ctrls.wrQLenPdf::13                      1                       # What write queue length does an incoming req see
system.mem_ctrls.wrQLenPdf::14                      1                       # What write queue length does an incoming req see
system.mem_ctrls.wrQLenPdf::15                     33                       # What write queue length does an incoming req see
system.mem_ctrls.wrQLenPdf::16                     34                       # What write queue length does an incoming req see
system.mem_ctrls.wrQLenPdf::17                    153                       # What write queue length does an incoming req see
system.mem_ctrls.wrQLenPdf::18                    157                       # What write queue length does an incoming req see
system.mem_ctrls.wrQLenPdf::19                    159                       # What write queue length does an incoming req see
system.mem_ctrls.wrQLenPdf::20                    157                       # What write queue length does an incoming req see
system.mem_ctrls.wrQLenPdf::21                    161                       # What write queue length does an incoming req see
system.mem_ctrls.wrQLenPdf::22                    160                       # What write queue length does an incoming req see
system.mem_ctrls.wrQLenPdf::23                    161                       # What write queue length does an incoming req see
system.mem_ctrls.wrQLenPdf::24                    159                       # What write queue length does an incoming req see
system.mem_ctrls.wrQLenPdf::25                    159                       # What write queue length does an incoming req see
system.mem_ctrls.wrQLenPdf::26                    159                       # What write queue length does an incoming req see
system.mem_ctrls.wrQLenPdf::27                    158                       # What write queue length does an incoming req see
system.mem_ctrls.wrQLenPdf::28                    158                       # What write queue length does an incoming req see
system.mem_ctrls.wrQLenPdf::29                    160                       # What write queue length does an incoming req see
system.mem_ctrls.wrQLenPdf::30                    158                       # What write queue length does an incoming req see
system.mem_ctrls.wrQLenPdf::31                    157                       # What write queue length does an incoming req see
system.mem_ctrls.wrQLenPdf::32                    157                       # What write queue length does an incoming req see
system.mem_ctrls.wrQLenPdf::33                      0                       # What write queue length does an incoming req see
system.mem_ctrls.wrQLenPdf::34                      0                       # What write queue length does an incoming req see
system.mem_ctrls.wrQLenPdf::35                      0                       # What write queue length does an incoming req see
system.mem_ctrls.wrQLenPdf::36                      0                       # What write queue length does an incoming req see
system.mem_ctrls.wrQLenPdf::37                      0                       # What write queue length does an incoming req see
system.mem_ctrls.wrQLenPdf::38                      0                       # What write queue length does an incoming req see
system.mem_ctrls.wrQLenPdf::39                      0                       # What write queue length does an incoming req see
system.mem_ctrls.wrQLenPdf::40                      0                       # What write queue length does an incoming req see
system.mem_ctrls.wrQLenPdf::41                      0                       # What write queue length does an incoming req see
system.mem_ctrls.wrQLenPdf::42                      0                       # What write queue length does an incoming req see
system.mem_ctrls.wrQLenPdf::43                      0                       # What write queue length does an incoming req see
system.mem_ctrls.wrQLenPdf::44                      0                       # What write queue length does an incoming req see
system.mem_ctrls.wrQLenPdf::45                      0                       # What write queue length does an incoming req see
system.mem_ctrls.wrQLenPdf::46                      0                       # What write queue length does an incoming req see
system.mem_ctrls.wrQLenPdf::47                      0                       # What write queue length does an incoming req see
system.mem_ctrls.wrQLenPdf::48                      0                       # What write queue length does an incoming req see
system.mem_ctrls.wrQLenPdf::49                      0                       # What write queue length does an incoming req see
system.mem_ctrls.wrQLenPdf::50                      0                       # What write queue length does an incoming req see
system.mem_ctrls.wrQLenPdf::51                      0                       # What write queue length does an incoming req see
system.mem_ctrls.wrQLenPdf::52                      0                       # What write queue length does an incoming req see
system.mem_ctrls.wrQLenPdf::53                      0                       # What write queue length does an incoming req see
system.mem_ctrls.wrQLenPdf::54                      0                       # What write queue length does an incoming req see
system.mem_ctrls.wrQLenPdf::55                      0                       # What write queue length does an incoming req see
system.mem_ctrls.wrQLenPdf::56                      0                       # What write queue length does an incoming req see
system.mem_ctrls.wrQLenPdf::57                      0                       # What write queue length does an incoming req see
system.mem_ctrls.wrQLenPdf::58                      0                       # What write queue length does an incoming req see
system.mem_ctrls.wrQLenPdf::59                      0                       # What write queue length does an incoming req see
system.mem_ctrls.wrQLenPdf::60                      0                       # What write queue length does an incoming req see
system.mem_ctrls.wrQLenPdf::61                      0                       # What write queue length does an incoming req see
system.mem_ctrls.wrQLenPdf::62                      0                       # What write queue length does an incoming req see
system.mem_ctrls.wrQLenPdf::63                      0                       # What write queue length does an incoming req see
system.mem_ctrls.bytesPerActivate::samples          915                       # Bytes accessed per row activation
system.mem_ctrls.bytesPerActivate::mean    540.327869                       # Bytes accessed per row activation
system.mem_ctrls.bytesPerActivate::gmean   359.960292                       # Bytes accessed per row activation
system.mem_ctrls.bytesPerActivate::stdev   382.607176                       # Bytes accessed per row activation
system.mem_ctrls.bytesPerActivate::0-127          163     17.81%     17.81% # Bytes accessed per row activation
system.mem_ctrls.bytesPerActivate::128-255          129     14.10%     31.91% # Bytes accessed per row activation
system.mem_ctrls.bytesPerActivate::256-383           68      7.43%     39.34% # Bytes accessed per row activation
system.mem_ctrls.bytesPerActivate::384-511           89      9.73%     49.07% # Bytes accessed per row activation
system.mem_ctrls.bytesPerActivate::512-639           90      9.84%     58.91% # Bytes accessed per row activation
system.mem_ctrls.bytesPerActivate::640-767           45      4.92%     63.83% # Bytes accessed per row activation
system.mem_ctrls.bytesPerActivate::768-895           32      3.50%     67.32% # Bytes accessed per row activation
system.mem_ctrls.bytesPerActivate::896-1023           23      2.51%     69.84% # Bytes accessed per row activation
system.mem_ctrls.bytesPerActivate::1024-1151          276     30.16%    100.00% # Bytes accessed per row activation
system.mem_ctrls.bytesPerActivate::total          915                       # Bytes accessed per row activation
system.mem_ctrls.rdPerTurnAround::samples          157                       # Reads before turning the bus around for writes
system.mem_ctrls.rdPerTurnAround::mean      32.522293                       # Reads before turning the bus around for writes
system.mem_ctrls.rdPerTurnAround::gmean     21.123435                       # Reads before turning the bus around for writes
system.mem_ctrls.rdPerTurnAround::stdev     98.530913                       # Reads before turning the bus around for writes
system.mem_ctrls.rdPerTurnAround::0-63            147     93.63%     93.63% # Reads before turning the bus around for writes
system.mem_ctrls.rdPerTurnAround::64-127            7      4.46%     98.09% # Reads before turning the bus around for writes
system.mem_ctrls.rdPerTurnAround::128-191            1      0.64%     98.73% # Reads before turning the bus around for writes
system.mem_ctrls.rdPerTurnAround::192-255            1      0.64%     99.36% # Reads before turning the bus around for writes
system.mem_ctrls.rdPerTurnAround::1216-1279            1      0.64%    100.00% # Reads before turning the bus around for writes
system.mem_ctrls.rdPerTurnAround::total           157                       # Reads before turning the bus around for writes
system.mem_ctrls.wrPerTurnAround::samples          157                       # Writes before turning the bus around for reads
system.mem_ctrls.wrPerTurnAround::mean      16.458599                       # Writes before turning the bus around for reads
system.mem_ctrls.wrPerTurnAround::gmean     16.434365                       # Writes before turning the bus around for reads
system.mem_ctrls.wrPerTurnAround::stdev      0.923278                       # Writes before turning the bus around for reads
system.mem_ctrls.wrPerTurnAround::16              124     78.98%     78.98% # Writes before turning the bus around for reads
system.mem_ctrls.wrPerTurnAround::17                1      0.64%     79.62% # Writes before turning the bus around for reads
system.mem_ctrls.wrPerTurnAround::18               26     16.56%     96.18% # Writes before turning the bus around for reads
system.mem_ctrls.wrPerTurnAround::19                5      3.18%     99.36% # Writes before turning the bus around for reads
system.mem_ctrls.wrPerTurnAround::20                1      0.64%    100.00% # Writes before turning the bus around for reads
system.mem_ctrls.wrPerTurnAround::total           157                       # Writes before turning the bus around for reads
system.mem_ctrls.totQLat                     47770500                       # Total ticks spent queuing
system.mem_ctrls.totMemAccLat               144708000                       # Total ticks spent from burst creation until serviced by the DRAM
system.mem_ctrls.totBusLat                   25850000                       # Total ticks spent in databus transfers
system.mem_ctrls.avgQLat                      9239.94                       # Average queueing delay per DRAM burst
system.mem_ctrls.avgBusLat                    5000.00                       # Average bus latency per DRAM burst
system.mem_ctrls.avgMemAccLat                27989.94                       # Average memory access latency per DRAM burst
system.mem_ctrls.avgRdBW                       682.22                       # Average DRAM read bandwidth in MiByte/s
system.mem_ctrls.avgWrBW                       340.98                       # Average achieved write bandwidth in MiByte/s
system.mem_ctrls.avgRdBWSys                   1264.54                       # Average system read bandwidth in MiByte/s
system.mem_ctrls.avgWrBWSys                    759.68                       # Average system write bandwidth in MiByte/s
system.mem_ctrls.peakBW                      12800.00                       # Theoretical peak bandwidth in MiByte/s
system.mem_ctrls.busUtil                         7.99                       # Data bus utilization in percentage
system.mem_ctrls.busUtilRead                     5.33                       # Data bus utilization in percentage for reads
system.mem_ctrls.busUtilWrite                    2.66                       # Data bus utilization in percentage for writes
system.mem_ctrls.avgRdQLen                       1.16                       # Average read queue length when enqueuing
system.mem_ctrls.avgWrQLen                      22.27                       # Average write queue length when enqueuing
system.mem_ctrls.readRowHits                     4440                       # Number of row buffer hits during reads
system.mem_ctrls.writeRowHits                    2392                       # Number of row buffer hits during writes
system.mem_ctrls.readRowHitRate                 85.88                       # Row buffer hit rate for reads
system.mem_ctrls.writeRowHitRate                91.47                       # Row buffer hit rate for writes
system.mem_ctrls.avgGap                      31616.95                       # Average gap between requests
system.mem_ctrls.pageHitRate                    87.76                       # Row buffer hit rate, read and write combined
system.mem_ctrls_0.actEnergy                  3916080                       # Energy for activate commands per rank (pJ)
system.mem_ctrls_0.preEnergy                  2136750                       # Energy for precharge commands per rank (pJ)
system.mem_ctrls_0.readEnergy                23423400                       # Energy for read commands per rank (pJ)
system.mem_ctrls_0.writeEnergy                6564240                       # Energy for write commands per rank (pJ)
system.mem_ctrls_0.refreshEnergy             31530720                       # Energy for refresh commands per rank (pJ)
system.mem_ctrls_0.actBackEnergy            282109815                       # Energy for active background per rank (pJ)
system.mem_ctrls_0.preBackEnergy             42339750                       # Energy for precharge background per rank (pJ)
system.mem_ctrls_0.totalEnergy              392020755                       # Total energy per rank (pJ)
system.mem_ctrls_0.averagePower            811.624571                       # Core power per rank (mW)
system.mem_ctrls_0.memoryStateTime::IDLE     68119250                       # Time in different power states
system.mem_ctrls_0.memoryStateTime::REF      16120000                       # Time in different power states
system.mem_ctrls_0.memoryStateTime::PRE_PDN            0                       # Time in different power states
system.mem_ctrls_0.memoryStateTime::ACT     398782000                       # Time in different power states
system.mem_ctrls_0.memoryStateTime::ACT_PDN            0                       # Time in different power states
system.mem_ctrls_1.actEnergy                  2978640                       # Energy for activate commands per rank (pJ)
system.mem_ctrls_1.preEnergy                  1625250                       # Energy for precharge commands per rank (pJ)
system.mem_ctrls_1.readEnergy                16512600                       # Energy for read commands per rank (pJ)
system.mem_ctrls_1.writeEnergy               10180080                       # Energy for write commands per rank (pJ)
system.mem_ctrls_1.refreshEnergy             31530720                       # Energy for refresh commands per rank (pJ)
system.mem_ctrls_1.actBackEnergy            291270285                       # Energy for active background per rank (pJ)
system.mem_ctrls_1.preBackEnergy             34304250                       # Energy for precharge background per rank (pJ)
system.mem_ctrls_1.totalEnergy              388401825                       # Total energy per rank (pJ)
system.mem_ctrls_1.averagePower            804.132079                       # Core power per rank (mW)
system.mem_ctrls_1.memoryStateTime::IDLE     55209250                       # Time in different power states
system.mem_ctrls_1.memoryStateTime::REF      16120000                       # Time in different power states
system.mem_ctrls_1.memoryStateTime::PRE_PDN            0                       # Time in different power states
system.mem_ctrls_1.memoryStateTime::ACT     411762750                       # Time in different power states
system.mem_ctrls_1.memoryStateTime::ACT_PDN            0                       # Time in different power states
system.cpu0.branchPred.lookups                  87482                       # Number of BP lookups
system.cpu0.branchPred.condPredicted            85091                       # Number of conditional branches predicted
system.cpu0.branchPred.condIncorrect             2462                       # Number of conditional branches incorrect
system.cpu0.branchPred.BTBLookups               81982                       # Number of BTB lookups
system.cpu0.branchPred.BTBHits                  81144                       # Number of BTB hits
system.cpu0.branchPred.BTBCorrect                   0                       # Number of correct BTB predictions (this stat may not work properly.
system.cpu0.branchPred.BTBHitPct            98.977824                       # BTB Hit Percentage
system.cpu0.branchPred.usedRAS                    780                       # Number of times the RAS was used to get a target.
system.cpu0.branchPred.RASInCorrect                 7                       # Number of incorrect RAS predictions.
system.cpu_voltage_domain.voltage                   1                       # Voltage in Volts
system.cpu_clk_domain.clock                       500                       # Clock period in ticks
system.cpu0.dstage2_mmu.stage2_tlb.walker.walks            0                       # Table walker walks requested
system.cpu0.dstage2_mmu.stage2_tlb.walker.walkRequestOrigin_Requested::Data            0                       # Table walker requests started/completed, data/inst
system.cpu0.dstage2_mmu.stage2_tlb.walker.walkRequestOrigin_Requested::Inst            0                       # Table walker requests started/completed, data/inst
system.cpu0.dstage2_mmu.stage2_tlb.walker.walkRequestOrigin_Requested::total            0                       # Table walker requests started/completed, data/inst
system.cpu0.dstage2_mmu.stage2_tlb.walker.walkRequestOrigin_Completed::Data            0                       # Table walker requests started/completed, data/inst
system.cpu0.dstage2_mmu.stage2_tlb.walker.walkRequestOrigin_Completed::Inst            0                       # Table walker requests started/completed, data/inst
system.cpu0.dstage2_mmu.stage2_tlb.walker.walkRequestOrigin_Completed::total            0                       # Table walker requests started/completed, data/inst
system.cpu0.dstage2_mmu.stage2_tlb.walker.walkRequestOrigin::total            0                       # Table walker requests started/completed, data/inst
system.cpu0.dstage2_mmu.stage2_tlb.inst_hits            0                       # ITB inst hits
system.cpu0.dstage2_mmu.stage2_tlb.inst_misses            0                       # ITB inst misses
system.cpu0.dstage2_mmu.stage2_tlb.read_hits            0                       # DTB read hits
system.cpu0.dstage2_mmu.stage2_tlb.read_misses            0                       # DTB read misses
system.cpu0.dstage2_mmu.stage2_tlb.write_hits            0                       # DTB write hits
system.cpu0.dstage2_mmu.stage2_tlb.write_misses            0                       # DTB write misses
system.cpu0.dstage2_mmu.stage2_tlb.flush_tlb            0                       # Number of times complete TLB was flushed
system.cpu0.dstage2_mmu.stage2_tlb.flush_tlb_mva            0                       # Number of times TLB was flushed by MVA
system.cpu0.dstage2_mmu.stage2_tlb.flush_tlb_mva_asid            0                       # Number of times TLB was flushed by MVA & ASID
system.cpu0.dstage2_mmu.stage2_tlb.flush_tlb_asid            0                       # Number of times TLB was flushed by ASID
system.cpu0.dstage2_mmu.stage2_tlb.flush_entries            0                       # Number of entries that have been flushed from TLB
system.cpu0.dstage2_mmu.stage2_tlb.align_faults            0                       # Number of TLB faults due to alignment restrictions
system.cpu0.dstage2_mmu.stage2_tlb.prefetch_faults            0                       # Number of TLB faults due to prefetch
system.cpu0.dstage2_mmu.stage2_tlb.domain_faults            0                       # Number of TLB faults due to domain restrictions
system.cpu0.dstage2_mmu.stage2_tlb.perms_faults            0                       # Number of TLB faults due to permissions restrictions
system.cpu0.dstage2_mmu.stage2_tlb.read_accesses            0                       # DTB read accesses
system.cpu0.dstage2_mmu.stage2_tlb.write_accesses            0                       # DTB write accesses
system.cpu0.dstage2_mmu.stage2_tlb.inst_accesses            0                       # ITB inst accesses
system.cpu0.dstage2_mmu.stage2_tlb.hits             0                       # DTB hits
system.cpu0.dstage2_mmu.stage2_tlb.misses            0                       # DTB misses
system.cpu0.dstage2_mmu.stage2_tlb.accesses            0                       # DTB accesses
system.cpu0.dtb.walker.walks                        0                       # Table walker walks requested
system.cpu0.dtb.walker.walkRequestOrigin_Requested::Data            0                       # Table walker requests started/completed, data/inst
system.cpu0.dtb.walker.walkRequestOrigin_Requested::Inst            0                       # Table walker requests started/completed, data/inst
system.cpu0.dtb.walker.walkRequestOrigin_Requested::total            0                       # Table walker requests started/completed, data/inst
system.cpu0.dtb.walker.walkRequestOrigin_Completed::Data            0                       # Table walker requests started/completed, data/inst
system.cpu0.dtb.walker.walkRequestOrigin_Completed::Inst            0                       # Table walker requests started/completed, data/inst
system.cpu0.dtb.walker.walkRequestOrigin_Completed::total            0                       # Table walker requests started/completed, data/inst
system.cpu0.dtb.walker.walkRequestOrigin::total            0                       # Table walker requests started/completed, data/inst
system.cpu0.dtb.inst_hits                           0                       # ITB inst hits
system.cpu0.dtb.inst_misses                         0                       # ITB inst misses
system.cpu0.dtb.read_hits                           0                       # DTB read hits
system.cpu0.dtb.read_misses                         0                       # DTB read misses
system.cpu0.dtb.write_hits                          0                       # DTB write hits
system.cpu0.dtb.write_misses                        0                       # DTB write misses
system.cpu0.dtb.flush_tlb                           0                       # Number of times complete TLB was flushed
system.cpu0.dtb.flush_tlb_mva                       0                       # Number of times TLB was flushed by MVA
system.cpu0.dtb.flush_tlb_mva_asid                  0                       # Number of times TLB was flushed by MVA & ASID
system.cpu0.dtb.flush_tlb_asid                      0                       # Number of times TLB was flushed by ASID
system.cpu0.dtb.flush_entries                       0                       # Number of entries that have been flushed from TLB
system.cpu0.dtb.align_faults                        0                       # Number of TLB faults due to alignment restrictions
system.cpu0.dtb.prefetch_faults                     0                       # Number of TLB faults due to prefetch
system.cpu0.dtb.domain_faults                       0                       # Number of TLB faults due to domain restrictions
system.cpu0.dtb.perms_faults                        0                       # Number of TLB faults due to permissions restrictions
system.cpu0.dtb.read_accesses                       0                       # DTB read accesses
system.cpu0.dtb.write_accesses                      0                       # DTB write accesses
system.cpu0.dtb.inst_accesses                       0                       # ITB inst accesses
system.cpu0.dtb.hits                                0                       # DTB hits
system.cpu0.dtb.misses                              0                       # DTB misses
system.cpu0.dtb.accesses                            0                       # DTB accesses
system.cpu0.istage2_mmu.stage2_tlb.walker.walks            0                       # Table walker walks requested
system.cpu0.istage2_mmu.stage2_tlb.walker.walkRequestOrigin_Requested::Data            0                       # Table walker requests started/completed, data/inst
system.cpu0.istage2_mmu.stage2_tlb.walker.walkRequestOrigin_Requested::Inst            0                       # Table walker requests started/completed, data/inst
system.cpu0.istage2_mmu.stage2_tlb.walker.walkRequestOrigin_Requested::total            0                       # Table walker requests started/completed, data/inst
system.cpu0.istage2_mmu.stage2_tlb.walker.walkRequestOrigin_Completed::Data            0                       # Table walker requests started/completed, data/inst
system.cpu0.istage2_mmu.stage2_tlb.walker.walkRequestOrigin_Completed::Inst            0                       # Table walker requests started/completed, data/inst
system.cpu0.istage2_mmu.stage2_tlb.walker.walkRequestOrigin_Completed::total            0                       # Table walker requests started/completed, data/inst
system.cpu0.istage2_mmu.stage2_tlb.walker.walkRequestOrigin::total            0                       # Table walker requests started/completed, data/inst
system.cpu0.istage2_mmu.stage2_tlb.inst_hits            0                       # ITB inst hits
system.cpu0.istage2_mmu.stage2_tlb.inst_misses            0                       # ITB inst misses
system.cpu0.istage2_mmu.stage2_tlb.read_hits            0                       # DTB read hits
system.cpu0.istage2_mmu.stage2_tlb.read_misses            0                       # DTB read misses
system.cpu0.istage2_mmu.stage2_tlb.write_hits            0                       # DTB write hits
system.cpu0.istage2_mmu.stage2_tlb.write_misses            0                       # DTB write misses
system.cpu0.istage2_mmu.stage2_tlb.flush_tlb            0                       # Number of times complete TLB was flushed
system.cpu0.istage2_mmu.stage2_tlb.flush_tlb_mva            0                       # Number of times TLB was flushed by MVA
system.cpu0.istage2_mmu.stage2_tlb.flush_tlb_mva_asid            0                       # Number of times TLB was flushed by MVA & ASID
system.cpu0.istage2_mmu.stage2_tlb.flush_tlb_asid            0                       # Number of times TLB was flushed by ASID
system.cpu0.istage2_mmu.stage2_tlb.flush_entries            0                       # Number of entries that have been flushed from TLB
system.cpu0.istage2_mmu.stage2_tlb.align_faults            0                       # Number of TLB faults due to alignment restrictions
system.cpu0.istage2_mmu.stage2_tlb.prefetch_faults            0                       # Number of TLB faults due to prefetch
system.cpu0.istage2_mmu.stage2_tlb.domain_faults            0                       # Number of TLB faults due to domain restrictions
system.cpu0.istage2_mmu.stage2_tlb.perms_faults            0                       # Number of TLB faults due to permissions restrictions
system.cpu0.istage2_mmu.stage2_tlb.read_accesses            0                       # DTB read accesses
system.cpu0.istage2_mmu.stage2_tlb.write_accesses            0                       # DTB write accesses
system.cpu0.istage2_mmu.stage2_tlb.inst_accesses            0                       # ITB inst accesses
system.cpu0.istage2_mmu.stage2_tlb.hits             0                       # DTB hits
system.cpu0.istage2_mmu.stage2_tlb.misses            0                       # DTB misses
system.cpu0.istage2_mmu.stage2_tlb.accesses            0                       # DTB accesses
system.cpu0.itb.walker.walks                        0                       # Table walker walks requested
system.cpu0.itb.walker.walkRequestOrigin_Requested::Data            0                       # Table walker requests started/completed, data/inst
system.cpu0.itb.walker.walkRequestOrigin_Requested::Inst            0                       # Table walker requests started/completed, data/inst
system.cpu0.itb.walker.walkRequestOrigin_Requested::total            0                       # Table walker requests started/completed, data/inst
system.cpu0.itb.walker.walkRequestOrigin_Completed::Data            0                       # Table walker requests started/completed, data/inst
system.cpu0.itb.walker.walkRequestOrigin_Completed::Inst            0                       # Table walker requests started/completed, data/inst
system.cpu0.itb.walker.walkRequestOrigin_Completed::total            0                       # Table walker requests started/completed, data/inst
system.cpu0.itb.walker.walkRequestOrigin::total            0                       # Table walker requests started/completed, data/inst
system.cpu0.itb.inst_hits                           0                       # ITB inst hits
system.cpu0.itb.inst_misses                         0                       # ITB inst misses
system.cpu0.itb.read_hits                           0                       # DTB read hits
system.cpu0.itb.read_misses                         0                       # DTB read misses
system.cpu0.itb.write_hits                          0                       # DTB write hits
system.cpu0.itb.write_misses                        0                       # DTB write misses
system.cpu0.itb.flush_tlb                           0                       # Number of times complete TLB was flushed
system.cpu0.itb.flush_tlb_mva                       0                       # Number of times TLB was flushed by MVA
system.cpu0.itb.flush_tlb_mva_asid                  0                       # Number of times TLB was flushed by MVA & ASID
system.cpu0.itb.flush_tlb_asid                      0                       # Number of times TLB was flushed by ASID
system.cpu0.itb.flush_entries                       0                       # Number of entries that have been flushed from TLB
system.cpu0.itb.align_faults                        0                       # Number of TLB faults due to alignment restrictions
system.cpu0.itb.prefetch_faults                     0                       # Number of TLB faults due to prefetch
system.cpu0.itb.domain_faults                       0                       # Number of TLB faults due to domain restrictions
system.cpu0.itb.perms_faults                        0                       # Number of TLB faults due to permissions restrictions
system.cpu0.itb.read_accesses                       0                       # DTB read accesses
system.cpu0.itb.write_accesses                      0                       # DTB write accesses
system.cpu0.itb.inst_accesses                       0                       # ITB inst accesses
system.cpu0.itb.hits                                0                       # DTB hits
system.cpu0.itb.misses                              0                       # DTB misses
system.cpu0.itb.accesses                            0                       # DTB accesses
system.cpu0.workload.num_syscalls                 324                       # Number of system calls
system.cpu0.numCycles                          970014                       # number of cpu cycles simulated
system.cpu0.numWorkItemsStarted                     0                       # number of work items this cpu started
system.cpu0.numWorkItemsCompleted                   0                       # number of work items this cpu completed
system.cpu0.fetch.icacheStallCycles             17466                       # Number of cycles fetch is stalled on an Icache miss
system.cpu0.fetch.Insts                       1173245                       # Number of instructions fetch has processed
system.cpu0.fetch.Branches                      87482                       # Number of branches that fetch encountered
system.cpu0.fetch.predictedBranches             81924                       # Number of branches that fetch has predicted taken
system.cpu0.fetch.Cycles                       909456                       # Number of cycles fetch has run and was not squashing or blocked
system.cpu0.fetch.SquashCycles                   4997                       # Number of cycles fetch has spent squashing
system.cpu0.fetch.MiscStallCycles                 258                       # Number of cycles fetch has spent waiting on interrupts, or bad addresses, or out of MSHRs
system.cpu0.fetch.PendingTrapStallCycles          108                       # Number of stall cycles due to pending traps
system.cpu0.fetch.IcacheWaitRetryStallCycles          471                       # Number of stall cycles due to full MSHR
system.cpu0.fetch.CacheLines                   321582                       # Number of cache lines fetched
system.cpu0.fetch.IcacheSquashes                  364                       # Number of outstanding Icache misses that were squashed
system.cpu0.fetch.rateDist::samples            930257                       # Number of instructions fetched each cycle (Total)
system.cpu0.fetch.rateDist::mean             1.297188                       # Number of instructions fetched each cycle (Total)
system.cpu0.fetch.rateDist::stdev            1.295575                       # Number of instructions fetched each cycle (Total)
system.cpu0.fetch.rateDist::underflows              0      0.00%      0.00% # Number of instructions fetched each cycle (Total)
system.cpu0.fetch.rateDist::0                  369155     39.68%     39.68% # Number of instructions fetched each cycle (Total)
system.cpu0.fetch.rateDist::1                  229905     24.71%     64.40% # Number of instructions fetched each cycle (Total)
system.cpu0.fetch.rateDist::2                   16778      1.80%     66.20% # Number of instructions fetched each cycle (Total)
system.cpu0.fetch.rateDist::3                  314419     33.80%    100.00% # Number of instructions fetched each cycle (Total)
system.cpu0.fetch.rateDist::overflows               0      0.00%    100.00% # Number of instructions fetched each cycle (Total)
system.cpu0.fetch.rateDist::min_value               0                       # Number of instructions fetched each cycle (Total)
system.cpu0.fetch.rateDist::max_value               3                       # Number of instructions fetched each cycle (Total)
system.cpu0.fetch.rateDist::total              930257                       # Number of instructions fetched each cycle (Total)
system.cpu0.fetch.branchRate                 0.090186                       # Number of branch fetches per cycle
system.cpu0.fetch.rate                       1.209513                       # Number of inst fetches per cycle
system.cpu0.decode.IdleCycles                   36920                       # Number of cycles decode is idle
system.cpu0.decode.BlockedCycles               393257                       # Number of cycles decode is blocked
system.cpu0.decode.RunCycles                   470503                       # Number of cycles decode is running
system.cpu0.decode.UnblockCycles                27407                       # Number of cycles decode is unblocking
system.cpu0.decode.SquashCycles                  2170                       # Number of cycles decode is squashing
system.cpu0.decode.BranchResolved                 921                       # Number of times decode resolved a branch
system.cpu0.decode.BranchMispred                  348                       # Number of times decode detected a branch misprediction
system.cpu0.decode.DecodedInsts               1181672                       # Number of instructions handled by decode
system.cpu0.decode.SquashedInsts                 9833                       # Number of squashed instructions handled by decode
system.cpu0.rename.SquashCycles                  2170                       # Number of cycles rename is squashing
system.cpu0.rename.IdleCycles                   60087                       # Number of cycles rename is idle
system.cpu0.rename.BlockCycles                 107570                       # Number of cycles rename is blocking
system.cpu0.rename.serializeStallCycles          9170                       # count of cycles rename stalled for serializing inst
system.cpu0.rename.RunCycles                   472477                       # Number of cycles rename is running
system.cpu0.rename.UnblockCycles               278783                       # Number of cycles rename is unblocking
system.cpu0.rename.RenamedInsts               1173647                       # Number of instructions processed by rename
system.cpu0.rename.SquashedInsts                 3062                       # Number of squashed instructions processed by rename
system.cpu0.rename.ROBFullEvents                 8923                       # Number of times rename has blocked due to ROB full
system.cpu0.rename.IQFullEvents                    21                       # Number of times rename has blocked due to IQ full
system.cpu0.rename.LQFullEvents                     1                       # Number of times rename has blocked due to LQ full
system.cpu0.rename.SQFullEvents                255429                       # Number of times rename has blocked due to SQ full
system.cpu0.rename.RenamedOperands            1505547                       # Number of destination operands rename has renamed
system.cpu0.rename.RenameLookups              5817038                       # Number of register rename lookups that rename has made
system.cpu0.rename.int_rename_lookups         1938480                       # Number of integer rename lookups
system.cpu0.rename.fp_rename_lookups               22                       # Number of floating rename lookups
system.cpu0.rename.CommittedMaps              1482163                       # Number of HB maps that are committed
system.cpu0.rename.UndoneMaps                   23384                       # Number of HB maps that are undone due to squashing
system.cpu0.rename.serializingInsts               111                       # count of serializing insts renamed
system.cpu0.rename.tempSerializingInsts           110                       # count of temporary serializing insts renamed
system.cpu0.rename.skidInsts                    65807                       # count of insts added to the skid buffer
system.cpu0.memDep0.insertedLoads              275638                       # Number of loads inserted to the mem dependence unit.
system.cpu0.memDep0.insertedStores              49091                       # Number of stores inserted to the mem dependence unit.
system.cpu0.memDep0.conflictingLoads              250                       # Number of conflicting loads.
system.cpu0.memDep0.conflictingStores             105                       # Number of conflicting stores.
system.cpu0.iq.iqInstsAdded                   1170391                       # Number of instructions added to the IQ (excludes non-spec)
system.cpu0.iq.iqNonSpecInstsAdded                249                       # Number of non-speculative instructions added to the IQ
system.cpu0.iq.iqInstsIssued                  1165070                       # Number of instructions issued
system.cpu0.iq.iqSquashedInstsIssued             1313                       # Number of squashed instructions issued
system.cpu0.iq.iqSquashedInstsExamined          17881                       # Number of squashed instructions iterated over during squash; mainly for profiling
system.cpu0.iq.iqSquashedOperandsExamined        50018                       # Number of squashed operands that are examined and possibly removed from graph
system.cpu0.iq.iqSquashedNonSpecRemoved            56                       # Number of squashed non-spec instructions that were removed
system.cpu0.iq.issued_per_cycle::samples       930257                       # Number of insts issued each cycle
system.cpu0.iq.issued_per_cycle::mean        1.252417                       # Number of insts issued each cycle
system.cpu0.iq.issued_per_cycle::stdev       1.347760                       # Number of insts issued each cycle
system.cpu0.iq.issued_per_cycle::underflows            0      0.00%      0.00% # Number of insts issued each cycle
system.cpu0.iq.issued_per_cycle::0             430316     46.26%     46.26% # Number of insts issued each cycle
system.cpu0.iq.issued_per_cycle::1             125584     13.50%     59.76% # Number of insts issued each cycle
system.cpu0.iq.issued_per_cycle::2             119608     12.86%     72.62% # Number of insts issued each cycle
system.cpu0.iq.issued_per_cycle::3             218729     23.51%     96.13% # Number of insts issued each cycle
system.cpu0.iq.issued_per_cycle::4              36017      3.87%    100.00% # Number of insts issued each cycle
system.cpu0.iq.issued_per_cycle::5                  3      0.00%    100.00% # Number of insts issued each cycle
system.cpu0.iq.issued_per_cycle::6                  0      0.00%    100.00% # Number of insts issued each cycle
system.cpu0.iq.issued_per_cycle::7                  0      0.00%    100.00% # Number of insts issued each cycle
system.cpu0.iq.issued_per_cycle::8                  0      0.00%    100.00% # Number of insts issued each cycle
system.cpu0.iq.issued_per_cycle::overflows            0      0.00%    100.00% # Number of insts issued each cycle
system.cpu0.iq.issued_per_cycle::min_value            0                       # Number of insts issued each cycle
system.cpu0.iq.issued_per_cycle::max_value            5                       # Number of insts issued each cycle
system.cpu0.iq.issued_per_cycle::total         930257                       # Number of insts issued each cycle
system.cpu0.iq.fu_full::No_OpClass                  0      0.00%      0.00% # attempts to use FU when none available
system.cpu0.iq.fu_full::IntAlu                  31109     15.79%     15.79% # attempts to use FU when none available
system.cpu0.iq.fu_full::IntMult                  5816      2.95%     18.74% # attempts to use FU when none available
system.cpu0.iq.fu_full::IntDiv                      0      0.00%     18.74% # attempts to use FU when none available
system.cpu0.iq.fu_full::FloatAdd                    0      0.00%     18.74% # attempts to use FU when none available
system.cpu0.iq.fu_full::FloatCmp                    0      0.00%     18.74% # attempts to use FU when none available
system.cpu0.iq.fu_full::FloatCvt                    0      0.00%     18.74% # attempts to use FU when none available
system.cpu0.iq.fu_full::FloatMult                   0      0.00%     18.74% # attempts to use FU when none available
system.cpu0.iq.fu_full::FloatDiv                    0      0.00%     18.74% # attempts to use FU when none available
system.cpu0.iq.fu_full::FloatSqrt                   0      0.00%     18.74% # attempts to use FU when none available
system.cpu0.iq.fu_full::SimdAdd                     0      0.00%     18.74% # attempts to use FU when none available
system.cpu0.iq.fu_full::SimdAddAcc                  0      0.00%     18.74% # attempts to use FU when none available
system.cpu0.iq.fu_full::SimdAlu                     0      0.00%     18.74% # attempts to use FU when none available
system.cpu0.iq.fu_full::SimdCmp                     0      0.00%     18.74% # attempts to use FU when none available
system.cpu0.iq.fu_full::SimdCvt                     0      0.00%     18.74% # attempts to use FU when none available
system.cpu0.iq.fu_full::SimdMisc                    0      0.00%     18.74% # attempts to use FU when none available
system.cpu0.iq.fu_full::SimdMult                    0      0.00%     18.74% # attempts to use FU when none available
system.cpu0.iq.fu_full::SimdMultAcc                 0      0.00%     18.74% # attempts to use FU when none available
system.cpu0.iq.fu_full::SimdShift                   0      0.00%     18.74% # attempts to use FU when none available
system.cpu0.iq.fu_full::SimdShiftAcc                0      0.00%     18.74% # attempts to use FU when none available
system.cpu0.iq.fu_full::SimdSqrt                    0      0.00%     18.74% # attempts to use FU when none available
system.cpu0.iq.fu_full::SimdFloatAdd                0      0.00%     18.74% # attempts to use FU when none available
system.cpu0.iq.fu_full::SimdFloatAlu                0      0.00%     18.74% # attempts to use FU when none available
system.cpu0.iq.fu_full::SimdFloatCmp                0      0.00%     18.74% # attempts to use FU when none available
system.cpu0.iq.fu_full::SimdFloatCvt                0      0.00%     18.74% # attempts to use FU when none available
system.cpu0.iq.fu_full::SimdFloatDiv                0      0.00%     18.74% # attempts to use FU when none available
system.cpu0.iq.fu_full::SimdFloatMisc               0      0.00%     18.74% # attempts to use FU when none available
system.cpu0.iq.fu_full::SimdFloatMult               0      0.00%     18.74% # attempts to use FU when none available
system.cpu0.iq.fu_full::SimdFloatMultAcc            0      0.00%     18.74% # attempts to use FU when none available
system.cpu0.iq.fu_full::SimdFloatSqrt               0      0.00%     18.74% # attempts to use FU when none available
system.cpu0.iq.fu_full::MemRead                140739     71.44%     90.19% # attempts to use FU when none available
system.cpu0.iq.fu_full::MemWrite                19327      9.81%    100.00% # attempts to use FU when none available
system.cpu0.iq.fu_full::IprAccess                   0      0.00%    100.00% # attempts to use FU when none available
system.cpu0.iq.fu_full::InstPrefetch                0      0.00%    100.00% # attempts to use FU when none available
system.cpu0.iq.FU_type_0::No_OpClass                0      0.00%      0.00% # Type of FU issued
system.cpu0.iq.FU_type_0::IntAlu               637446     54.71%     54.71% # Type of FU issued
system.cpu0.iq.FU_type_0::IntMult              204956     17.59%     72.30% # Type of FU issued
system.cpu0.iq.FU_type_0::IntDiv                    0      0.00%     72.30% # Type of FU issued
system.cpu0.iq.FU_type_0::FloatAdd                  0      0.00%     72.30% # Type of FU issued
system.cpu0.iq.FU_type_0::FloatCmp                  0      0.00%     72.30% # Type of FU issued
system.cpu0.iq.FU_type_0::FloatCvt                  0      0.00%     72.30% # Type of FU issued
system.cpu0.iq.FU_type_0::FloatMult                 0      0.00%     72.30% # Type of FU issued
system.cpu0.iq.FU_type_0::FloatDiv                  0      0.00%     72.30% # Type of FU issued
system.cpu0.iq.FU_type_0::FloatSqrt                 0      0.00%     72.30% # Type of FU issued
system.cpu0.iq.FU_type_0::SimdAdd                   0      0.00%     72.30% # Type of FU issued
system.cpu0.iq.FU_type_0::SimdAddAcc                0      0.00%     72.30% # Type of FU issued
system.cpu0.iq.FU_type_0::SimdAlu                   0      0.00%     72.30% # Type of FU issued
system.cpu0.iq.FU_type_0::SimdCmp                   0      0.00%     72.30% # Type of FU issued
system.cpu0.iq.FU_type_0::SimdCvt                   0      0.00%     72.30% # Type of FU issued
system.cpu0.iq.FU_type_0::SimdMisc                  0      0.00%     72.30% # Type of FU issued
system.cpu0.iq.FU_type_0::SimdMult                  0      0.00%     72.30% # Type of FU issued
system.cpu0.iq.FU_type_0::SimdMultAcc               0      0.00%     72.30% # Type of FU issued
system.cpu0.iq.FU_type_0::SimdShift                 0      0.00%     72.30% # Type of FU issued
system.cpu0.iq.FU_type_0::SimdShiftAcc              0      0.00%     72.30% # Type of FU issued
system.cpu0.iq.FU_type_0::SimdSqrt                  0      0.00%     72.30% # Type of FU issued
system.cpu0.iq.FU_type_0::SimdFloatAdd              0      0.00%     72.30% # Type of FU issued
system.cpu0.iq.FU_type_0::SimdFloatAlu              0      0.00%     72.30% # Type of FU issued
system.cpu0.iq.FU_type_0::SimdFloatCmp              0      0.00%     72.30% # Type of FU issued
system.cpu0.iq.FU_type_0::SimdFloatCvt              0      0.00%     72.30% # Type of FU issued
system.cpu0.iq.FU_type_0::SimdFloatDiv              0      0.00%     72.30% # Type of FU issued
system.cpu0.iq.FU_type_0::SimdFloatMisc             3      0.00%     72.31% # Type of FU issued
system.cpu0.iq.FU_type_0::SimdFloatMult             0      0.00%     72.31% # Type of FU issued
system.cpu0.iq.FU_type_0::SimdFloatMultAcc            0      0.00%     72.31% # Type of FU issued
system.cpu0.iq.FU_type_0::SimdFloatSqrt             0      0.00%     72.31% # Type of FU issued
system.cpu0.iq.FU_type_0::MemRead              274290     23.54%     95.85% # Type of FU issued
system.cpu0.iq.FU_type_0::MemWrite              48375      4.15%    100.00% # Type of FU issued
system.cpu0.iq.FU_type_0::IprAccess                 0      0.00%    100.00% # Type of FU issued
system.cpu0.iq.FU_type_0::InstPrefetch              0      0.00%    100.00% # Type of FU issued
system.cpu0.iq.FU_type_0::total               1165070                       # Type of FU issued
system.cpu0.iq.rate                          1.201086                       # Inst issue rate
system.cpu0.iq.fu_busy_cnt                     196991                       # FU busy when requested
system.cpu0.iq.fu_busy_rate                  0.169081                       # FU busy rate (busy events/executed inst)
system.cpu0.iq.int_inst_queue_reads           3458625                       # Number of integer instruction queue reads
system.cpu0.iq.int_inst_queue_writes          1188509                       # Number of integer instruction queue writes
system.cpu0.iq.int_inst_queue_wakeup_accesses      1158558                       # Number of integer instruction queue wakeup accesses
system.cpu0.iq.fp_inst_queue_reads                 76                       # Number of floating instruction queue reads
system.cpu0.iq.fp_inst_queue_writes                28                       # Number of floating instruction queue writes
system.cpu0.iq.fp_inst_queue_wakeup_accesses           28                       # Number of floating instruction queue wakeup accesses
system.cpu0.iq.int_alu_accesses               1362013                       # Number of integer alu accesses
system.cpu0.iq.fp_alu_accesses                     48                       # Number of floating point alu accesses
system.cpu0.iew.lsq.thread0.forwLoads              65                       # Number of loads that had data forwarded from stores
system.cpu0.iew.lsq.thread0.invAddrLoads            0                       # Number of loads ignored due to an invalid address
system.cpu0.iew.lsq.thread0.squashedLoads         6093                       # Number of loads squashed
system.cpu0.iew.lsq.thread0.ignoredResponses            1                       # Number of memory responses ignored because the instruction is squashed
system.cpu0.iew.lsq.thread0.memOrderViolation           17                       # Number of memory ordering violations
system.cpu0.iew.lsq.thread0.squashedStores         1195                       # Number of stores squashed
system.cpu0.iew.lsq.thread0.invAddrSwpfs            0                       # Number of software prefetches ignored due to an invalid address
system.cpu0.iew.lsq.thread0.blockedLoads            0                       # Number of blocked loads due to partial load-store forwarding
system.cpu0.iew.lsq.thread0.rescheduledLoads           13                       # Number of loads that were rescheduled
system.cpu0.iew.lsq.thread0.cacheBlocked         2674                       # Number of times an access to memory failed due to the cache being blocked
system.cpu0.iew.iewIdleCycles                       0                       # Number of cycles IEW is idle
system.cpu0.iew.iewSquashCycles                  2170                       # Number of cycles IEW is squashing
system.cpu0.iew.iewBlockCycles                    804                       # Number of cycles IEW is blocking
system.cpu0.iew.iewUnblockCycles                10619                       # Number of cycles IEW is unblocking
system.cpu0.iew.iewDispatchedInsts            1170657                       # Number of instructions dispatched to IQ
system.cpu0.iew.iewDispSquashedInsts                0                       # Number of squashed instructions skipped by dispatch
system.cpu0.iew.iewDispLoadInsts               275638                       # Number of dispatched load instructions
system.cpu0.iew.iewDispStoreInsts               49091                       # Number of dispatched store instructions
system.cpu0.iew.iewDispNonSpecInsts               107                       # Number of dispatched non-speculative instructions
system.cpu0.iew.iewIQFullEvents                     8                       # Number of times the IQ has become full, causing a stall
system.cpu0.iew.iewLSQFullEvents                10607                       # Number of times the LSQ has become full, causing a stall
system.cpu0.iew.memOrderViolationEvents            17                       # Number of memory order violations
system.cpu0.iew.predictedTakenIncorrect          1201                       # Number of branches that were predicted taken incorrectly
system.cpu0.iew.predictedNotTakenIncorrect          993                       # Number of branches that were predicted not taken incorrectly
system.cpu0.iew.branchMispredicts                2194                       # Number of branch mispredicts detected at execute
system.cpu0.iew.iewExecutedInsts              1160352                       # Number of executed instructions
system.cpu0.iew.iewExecLoadInsts               271765                       # Number of load instructions executed
system.cpu0.iew.iewExecSquashedInsts             4718                       # Number of squashed instructions skipped in execute
system.cpu0.iew.exec_swp                            0                       # number of swp insts executed
system.cpu0.iew.exec_nop                           17                       # number of nop insts executed
system.cpu0.iew.exec_refs                      319949                       # number of memory reference insts executed
system.cpu0.iew.exec_branches                   82080                       # Number of branches executed
system.cpu0.iew.exec_stores                     48184                       # Number of stores executed
system.cpu0.iew.exec_rate                    1.196222                       # Inst execution rate
system.cpu0.iew.wb_sent                       1158706                       # cumulative count of insts sent to commit
system.cpu0.iew.wb_count                      1158586                       # cumulative count of insts written-back
system.cpu0.iew.wb_producers                   814883                       # num instructions producing a value
system.cpu0.iew.wb_consumers                  1126982                       # num instructions consuming a value
system.cpu0.iew.wb_penalized                        0                       # number of instrctions required to write to 'other' IQ
system.cpu0.iew.wb_rate                      1.194401                       # insts written-back per cycle
system.cpu0.iew.wb_fanout                    0.723067                       # average fanout of values written-back
system.cpu0.iew.wb_penalized_rate                   0                       # fraction of instructions written-back that wrote to 'other' IQ
system.cpu0.commit.commitSquashedInsts          12935                       # The number of squashed insts skipped by commit
system.cpu0.commit.commitNonSpecStalls            193                       # The number of times commit has been forced to stall to communicate backwards
system.cpu0.commit.branchMispredicts             2134                       # The number of times a branch was mispredicted
system.cpu0.commit.committed_per_cycle::samples       927581                       # Number of insts commited each cycle
system.cpu0.commit.committed_per_cycle::mean     1.242758                       # Number of insts commited each cycle
system.cpu0.commit.committed_per_cycle::stdev     2.198463                       # Number of insts commited each cycle
system.cpu0.commit.committed_per_cycle::underflows            0      0.00%      0.00% # Number of insts commited each cycle
system.cpu0.commit.committed_per_cycle::0       538318     58.03%     58.03% # Number of insts commited each cycle
system.cpu0.commit.committed_per_cycle::1       167954     18.11%     76.14% # Number of insts commited each cycle
system.cpu0.commit.committed_per_cycle::2        72748      7.84%     83.98% # Number of insts commited each cycle
system.cpu0.commit.committed_per_cycle::3        47645      5.14%     89.12% # Number of insts commited each cycle
system.cpu0.commit.committed_per_cycle::4         7344      0.79%     89.91% # Number of insts commited each cycle
system.cpu0.commit.committed_per_cycle::5        22536      2.43%     92.34% # Number of insts commited each cycle
system.cpu0.commit.committed_per_cycle::6         5204      0.56%     92.90% # Number of insts commited each cycle
system.cpu0.commit.committed_per_cycle::7         3562      0.38%     93.29% # Number of insts commited each cycle
system.cpu0.commit.committed_per_cycle::8        62270      6.71%    100.00% # Number of insts commited each cycle
system.cpu0.commit.committed_per_cycle::overflows            0      0.00%    100.00% # Number of insts commited each cycle
system.cpu0.commit.committed_per_cycle::min_value            0                       # Number of insts commited each cycle
system.cpu0.commit.committed_per_cycle::max_value            8                       # Number of insts commited each cycle
system.cpu0.commit.committed_per_cycle::total       927581                       # Number of insts commited each cycle
system.cpu0.commit.committedInsts             1123276                       # Number of instructions committed
system.cpu0.commit.committedOps               1152759                       # Number of ops (including micro ops) committed
system.cpu0.commit.swp_count                        0                       # Number of s/w prefetches committed
system.cpu0.commit.refs                        317441                       # Number of memory references committed
system.cpu0.commit.loads                       269545                       # Number of loads committed
system.cpu0.commit.membars                        115                       # Number of memory barriers committed
system.cpu0.commit.branches                     81496                       # Number of branches committed
system.cpu0.commit.fp_insts                        28                       # Number of committed floating point instructions.
system.cpu0.commit.int_insts                  1071774                       # Number of committed integer instructions.
system.cpu0.commit.function_calls                 295                       # Number of function calls committed.
system.cpu0.commit.op_class_0::No_OpClass            0      0.00%      0.00% # Class of committed instruction
system.cpu0.commit.op_class_0::IntAlu          630489     54.69%     54.69% # Class of committed instruction
[...]
system.cpu3.dcache.WriteReq_avg_mshr_miss_latency::cpu3.data 23676.470588                       # average WriteReq mshr miss latency
system.cpu3.dcache.WriteReq_avg_mshr_miss_latency::total 23676.470588                       # average WriteReq mshr miss latency
system.cpu3.dcache.SoftPFReq_avg_mshr_miss_latency::cpu3.data        53750                       # average SoftPFReq mshr miss latency
system.cpu3.dcache.SoftPFReq_avg_mshr_miss_latency::total        53750                       # average SoftPFReq mshr miss latency
system.cpu3.dcache.LoadLockedReq_avg_mshr_miss_latency::cpu3.data         9250                       # average LoadLockedReq mshr miss latency
system.cpu3.dcache.LoadLockedReq_avg_mshr_miss_latency::total         9250                       # average LoadLockedReq mshr miss latency
system.cpu3.dcache.StoreCondReq_avg_mshr_miss_latency::cpu3.data 10333.666667                       # average StoreCondReq mshr miss latency
system.cpu3.dcache.StoreCondReq_avg_mshr_miss_latency::total 10333.666667                       # average StoreCondReq mshr miss latency
system.cpu3.dcache.demand_avg_mshr_miss_latency::cpu3.data 14833.804348                       # average overall mshr miss latency
system.cpu3.dcache.demand_avg_mshr_miss_latency::total 14833.804348                       # average overall mshr miss latency
system.cpu3.dcache.overall_avg_mshr_miss_latency::cpu3.data 14845.233480                       # average overall mshr miss latency
system.cpu3.dcache.overall_avg_mshr_miss_latency::total 14845.233480                       # average overall mshr miss latency
system.cpu3.dcache.no_allocate_misses               0                       # Number of misses that were no-allocate
system.cpu3.icache.tags.replacements                0                       # number of replacements
system.cpu3.icache.tags.tagsinuse           24.859931                       # Cycle average of tags in use
system.cpu3.icache.tags.total_refs             303077                       # Total number of references to valid blocks.
system.cpu3.icache.tags.sampled_refs               57                       # Sample count of references to valid blocks.
system.cpu3.icache.tags.avg_refs          5317.140351                       # Average number of references to valid blocks.
system.cpu3.icache.tags.warmup_cycle                0                       # Cycle when the warmup percentage was hit.
system.cpu3.icache.tags.occ_blocks::cpu3.inst    24.859931                       # Average occupied blocks per requestor
system.cpu3.icache.tags.occ_percent::cpu3.inst     0.048555                       # Average percentage of cache occupancy
system.cpu3.icache.tags.occ_percent::total     0.048555                       # Average percentage of cache occupancy
system.cpu3.icache.tags.occ_task_id_blocks::1024           57                       # Occupied blocks per task id
system.cpu3.icache.tags.age_task_id_blocks_1024::0            4                       # Occupied blocks per task id
system.cpu3.icache.tags.age_task_id_blocks_1024::1           12                       # Occupied blocks per task id
system.cpu3.icache.tags.age_task_id_blocks_1024::2           41                       # Occupied blocks per task id
system.cpu3.icache.tags.occ_task_id_percent::1024     0.111328                       # Percentage of cache occupancy per task id
system.cpu3.icache.tags.tag_accesses           606357                       # Number of tag accesses
system.cpu3.icache.tags.data_accesses          606357                       # Number of data accesses
system.cpu3.icache.ReadReq_hits::cpu3.inst       303077                       # number of ReadReq hits
system.cpu3.icache.ReadReq_hits::total         303077                       # number of ReadReq hits
system.cpu3.icache.demand_hits::cpu3.inst       303077                       # number of demand (read+write) hits
system.cpu3.icache.demand_hits::total          303077                       # number of demand (read+write) hits
system.cpu3.icache.overall_hits::cpu3.inst       303077                       # number of overall hits
system.cpu3.icache.overall_hits::total         303077                       # number of overall hits
system.cpu3.icache.ReadReq_misses::cpu3.inst           73                       # number of ReadReq misses
system.cpu3.icache.ReadReq_misses::total           73                       # number of ReadReq misses
system.cpu3.icache.demand_misses::cpu3.inst           73                       # number of demand (read+write) misses
system.cpu3.icache.demand_misses::total            73                       # number of demand (read+write) misses
system.cpu3.icache.overall_misses::cpu3.inst           73                       # number of overall misses
system.cpu3.icache.overall_misses::total           73                       # number of overall misses
system.cpu3.icache.ReadReq_miss_latency::cpu3.inst      4824748                       # number of ReadReq miss cycles
system.cpu3.icache.ReadReq_miss_latency::total      4824748                       # number of ReadReq miss cycles
system.cpu3.icache.demand_miss_latency::cpu3.inst      4824748                       # number of demand (read+write) miss cycles
system.cpu3.icache.demand_miss_latency::total      4824748                       # number of demand (read+write) miss cycles
system.cpu3.icache.overall_miss_latency::cpu3.inst      4824748                       # number of overall miss cycles
system.cpu3.icache.overall_miss_latency::total      4824748                       # number of overall miss cycles
system.cpu3.icache.ReadReq_accesses::cpu3.inst       303150                       # number of ReadReq accesses(hits+misses)
system.cpu3.icache.ReadReq_accesses::total       303150                       # number of ReadReq accesses(hits+misses)
system.cpu3.icache.demand_accesses::cpu3.inst       303150                       # number of demand (read+write) accesses
system.cpu3.icache.demand_accesses::total       303150                       # number of demand (read+write) accesses
system.cpu3.icache.overall_accesses::cpu3.inst       303150                       # number of overall (read+write) accesses
system.cpu3.icache.overall_accesses::total       303150                       # number of overall (read+write) accesses
system.cpu3.icache.ReadReq_miss_rate::cpu3.inst     0.000241                       # miss rate for ReadReq accesses
system.cpu3.icache.ReadReq_miss_rate::total     0.000241                       # miss rate for ReadReq accesses
system.cpu3.icache.demand_miss_rate::cpu3.inst     0.000241                       # miss rate for demand accesses
system.cpu3.icache.demand_miss_rate::total     0.000241                       # miss rate for demand accesses
system.cpu3.icache.overall_miss_rate::cpu3.inst     0.000241                       # miss rate for overall accesses
system.cpu3.icache.overall_miss_rate::total     0.000241                       # miss rate for overall accesses
system.cpu3.icache.ReadReq_avg_miss_latency::cpu3.inst 66092.438356                       # average ReadReq miss latency
system.cpu3.icache.ReadReq_avg_miss_latency::total 66092.438356                       # average ReadReq miss latency
system.cpu3.icache.demand_avg_miss_latency::cpu3.inst 66092.438356                       # average overall miss latency
system.cpu3.icache.demand_avg_miss_latency::total 66092.438356                       # average overall miss latency
system.cpu3.icache.overall_avg_miss_latency::cpu3.inst 66092.438356                       # average overall miss latency
system.cpu3.icache.overall_avg_miss_latency::total 66092.438356                       # average overall miss latency
system.cpu3.icache.blocked_cycles::no_mshrs         1215                       # number of cycles access was blocked
system.cpu3.icache.blocked_cycles::no_targets            0                       # number of cycles access was blocked
system.cpu3.icache.blocked::no_mshrs               13                       # number of cycles access was blocked
system.cpu3.icache.blocked::no_targets              0                       # number of cycles access was blocked
system.cpu3.icache.avg_blocked_cycles::no_mshrs    93.461538                       # average number of cycles each access was blocked
system.cpu3.icache.avg_blocked_cycles::no_targets          nan                       # average number of cycles each access was blocked
system.cpu3.icache.fast_writes                      0                       # number of fast writes performed
system.cpu3.icache.cache_copies                     0                       # number of cache copies performed
system.cpu3.icache.ReadReq_mshr_hits::cpu3.inst           16                       # number of ReadReq MSHR hits
system.cpu3.icache.ReadReq_mshr_hits::total           16                       # number of ReadReq MSHR hits
system.cpu3.icache.demand_mshr_hits::cpu3.inst           16                       # number of demand (read+write) MSHR hits
system.cpu3.icache.demand_mshr_hits::total           16                       # number of demand (read+write) MSHR hits
system.cpu3.icache.overall_mshr_hits::cpu3.inst           16                       # number of overall MSHR hits
system.cpu3.icache.overall_mshr_hits::total           16                       # number of overall MSHR hits
system.cpu3.icache.ReadReq_mshr_misses::cpu3.inst           57                       # number of ReadReq MSHR misses
system.cpu3.icache.ReadReq_mshr_misses::total           57                       # number of ReadReq MSHR misses
system.cpu3.icache.demand_mshr_misses::cpu3.inst           57                       # number of demand (read+write) MSHR misses
system.cpu3.icache.demand_mshr_misses::total           57                       # number of demand (read+write) MSHR misses
system.cpu3.icache.overall_mshr_misses::cpu3.inst           57                       # number of overall MSHR misses
system.cpu3.icache.overall_mshr_misses::total           57                       # number of overall MSHR misses
system.cpu3.icache.ReadReq_mshr_miss_latency::cpu3.inst      3860000                       # number of ReadReq MSHR miss cycles
system.cpu3.icache.ReadReq_mshr_miss_latency::total      3860000                       # number of ReadReq MSHR miss cycles
system.cpu3.icache.demand_mshr_miss_latency::cpu3.inst      3860000                       # number of demand (read+write) MSHR miss cycles
system.cpu3.icache.demand_mshr_miss_latency::total      3860000                       # number of demand (read+write) MSHR miss cycles
system.cpu3.icache.overall_mshr_miss_latency::cpu3.inst      3860000                       # number of overall MSHR miss cycles
system.cpu3.icache.overall_mshr_miss_latency::total      3860000                       # number of overall MSHR miss cycles
system.cpu3.icache.ReadReq_mshr_miss_rate::cpu3.inst     0.000188                       # mshr miss rate for ReadReq accesses
system.cpu3.icache.ReadReq_mshr_miss_rate::total     0.000188                       # mshr miss rate for ReadReq accesses
system.cpu3.icache.demand_mshr_miss_rate::cpu3.inst     0.000188                       # mshr miss rate for demand accesses
system.cpu3.icache.demand_mshr_miss_rate::total     0.000188                       # mshr miss rate for demand accesses
system.cpu3.icache.overall_mshr_miss_rate::cpu3.inst     0.000188                       # mshr miss rate for overall accesses
system.cpu3.icache.overall_mshr_miss_rate::total     0.000188                       # mshr miss rate for overall accesses
system.cpu3.icache.ReadReq_avg_mshr_miss_latency::cpu3.inst 67719.298246                       # average ReadReq mshr miss latency
system.cpu3.icache.ReadReq_avg_mshr_miss_latency::total 67719.298246                       # average ReadReq mshr miss latency
system.cpu3.icache.demand_avg_mshr_miss_latency::cpu3.inst 67719.298246                       # average overall mshr miss latency
system.cpu3.icache.demand_avg_mshr_miss_latency::total 67719.298246                       # average overall mshr miss latency
system.cpu3.icache.overall_avg_mshr_miss_latency::cpu3.inst 67719.298246                       # average overall mshr miss latency
system.cpu3.icache.overall_avg_mshr_miss_latency::total 67719.298246                       # average overall mshr miss latency
system.cpu3.icache.no_allocate_misses               0                       # Number of misses that were no-allocate
system.membus.trans_dist::ReadReq                9939                       # Transaction distribution
system.membus.trans_dist::ReadResp               9938                       # Transaction distribution
system.membus.trans_dist::Writeback              5757                       # Transaction distribution
system.membus.trans_dist::UpgradeReq               16                       # Transaction distribution
system.membus.trans_dist::SCUpgradeReq             10                       # Transaction distribution
system.membus.trans_dist::UpgradeResp              26                       # Transaction distribution
system.membus.trans_dist::ReadExReq              6481                       # Transaction distribution
system.membus.trans_dist::ReadExResp             6481                       # Transaction distribution
system.membus.pkt_count_system.cpu0.icache.mem_side::system.mem_ctrls.port         1259                       # Packet count per connected master and slave (bytes)
system.membus.pkt_count_system.cpu0.dcache.mem_side::system.mem_ctrls.port        13517                       # Packet count per connected master and slave (bytes)
system.membus.pkt_count_system.cpu1.icache.mem_side::system.mem_ctrls.port          114                       # Packet count per connected master and slave (bytes)
system.membus.pkt_count_system.cpu1.dcache.mem_side::system.mem_ctrls.port         5541                       # Packet count per connected master and slave (bytes)
system.membus.pkt_count_system.cpu2.icache.mem_side::system.mem_ctrls.port          114                       # Packet count per connected master and slave (bytes)
system.membus.pkt_count_system.cpu2.dcache.mem_side::system.mem_ctrls.port         5649                       # Packet count per connected master and slave (bytes)
system.membus.pkt_count_system.cpu3.icache.mem_side::system.mem_ctrls.port          114                       # Packet count per connected master and slave (bytes)
system.membus.pkt_count_system.cpu3.dcache.mem_side::system.mem_ctrls.port         5491                       # Packet count per connected master and slave (bytes)
system.membus.pkt_count::total                  31799                       # Packet count per connected master and slave (bytes)
system.membus.pkt_size_system.cpu0.icache.mem_side::system.mem_ctrls.port        40256                       # Cumulative packet size per connected master and slave (bytes)
system.membus.pkt_size_system.cpu0.dcache.mem_side::system.mem_ctrls.port       520448                       # Cumulative packet size per connected master and slave (bytes)
system.membus.pkt_size_system.cpu1.icache.mem_side::system.mem_ctrls.port         3648                       # Cumulative packet size per connected master and slave (bytes)
system.membus.pkt_size_system.cpu1.dcache.mem_side::system.mem_ctrls.port       133952                       # Cumulative packet size per connected master and slave (bytes)
system.membus.pkt_size_system.cpu2.icache.mem_side::system.mem_ctrls.port         3648                       # Cumulative packet size per connected master and slave (bytes)
system.membus.pkt_size_system.cpu2.dcache.mem_side::system.mem_ctrls.port       142976                       # Cumulative packet size per connected master and slave (bytes)
system.membus.pkt_size_system.cpu3.icache.mem_side::system.mem_ctrls.port         3648                       # Cumulative packet size per connected master and slave (bytes)
system.membus.pkt_size_system.cpu3.dcache.mem_side::system.mem_ctrls.port       133120                       # Cumulative packet size per connected master and slave (bytes)
system.membus.pkt_size::total                  981696                       # Cumulative packet size per connected master and slave (bytes)
system.membus.snoops                             6849                       # Total snoops (count)
system.membus.snoop_fanout::samples             22203                       # Request fanout histogram
system.membus.snoop_fanout::mean                    7                       # Request fanout histogram
system.membus.snoop_fanout::stdev                   0                       # Request fanout histogram
system.membus.snoop_fanout::underflows              0      0.00%      0.00% # Request fanout histogram
system.membus.snoop_fanout::0                       0      0.00%      0.00% # Request fanout histogram
system.membus.snoop_fanout::1                       0      0.00%      0.00% # Request fanout histogram
system.membus.snoop_fanout::2                       0      0.00%      0.00% # Request fanout histogram
system.membus.snoop_fanout::3                       0      0.00%      0.00% # Request fanout histogram
system.membus.snoop_fanout::4                       0      0.00%      0.00% # Request fanout histogram
system.membus.snoop_fanout::5                       0      0.00%      0.00% # Request fanout histogram
system.membus.snoop_fanout::6                       0      0.00%      0.00% # Request fanout histogram
system.membus.snoop_fanout::7                   22203    100.00%    100.00% # Request fanout histogram
system.membus.snoop_fanout::8                       0      0.00%    100.00% # Request fanout histogram
system.membus.snoop_fanout::overflows               0      0.00%    100.00% # Request fanout histogram
system.membus.snoop_fanout::min_value               7                       # Request fanout histogram
system.membus.snoop_fanout::max_value               7                       # Request fanout histogram
system.membus.snoop_fanout::total               22203                       # Request fanout histogram
system.membus.reqLayer0.occupancy            49638498                       # Layer occupancy (ticks)
system.membus.reqLayer0.utilization              10.2                       # Layer utilization (%)
system.membus.respLayer1.occupancy            3346000                       # Layer occupancy (ticks)
system.membus.respLayer1.utilization              0.7                       # Layer utilization (%)
system.membus.respLayer2.occupancy           27816237                       # Layer occupancy (ticks)
system.membus.respLayer2.utilization              5.7                       # Layer utilization (%)
system.membus.respLayer5.occupancy             305250                       # Layer occupancy (ticks)
system.membus.respLayer5.utilization              0.1                       # Layer utilization (%)
system.membus.respLayer6.occupancy           17321482                       # Layer occupancy (ticks)
system.membus.respLayer6.utilization              3.6                       # Layer utilization (%)
system.membus.respLayer9.occupancy             305750                       # Layer occupancy (ticks)
system.membus.respLayer9.utilization              0.1                       # Layer utilization (%)
system.membus.respLayer10.occupancy          17187492                       # Layer occupancy (ticks)
system.membus.respLayer10.utilization             3.5                       # Layer utilization (%)
system.membus.respLayer13.occupancy            304749                       # Layer occupancy (ticks)
system.membus.respLayer13.utilization             0.1                       # Layer utilization (%)
system.membus.respLayer14.occupancy          17128979                       # Layer occupancy (ticks)
system.membus.respLayer14.utilization             3.5                       # Layer utilization (%)

---------- End Simulation Statistics   ----------
