
---------- Begin Simulation Statistics ----------
sim_seconds                                  0.000353                       # Number of seconds simulated
sim_ticks                                   352747500                       # Number of ticks simulated
final_tick                                  352747500                       # Number of ticks from beginning of simulation (restored from checkpoints and never reset)
sim_freq                                 1000000000000                       # Frequency of simulated ticks
host_inst_rate                                 185598                       # Simulator instruction rate (inst/s)
host_op_rate                                   187578                       # Simulator op (including micro ops) rate (op/s)
host_tick_rate                               14323990                       # Simulator tick rate (ticks/s)
host_mem_usage                                 676888                       # Number of bytes of host memory used
host_seconds                                    24.63                       # Real time elapsed on the host
sim_insts                                     4570591                       # Number of instructions simulated
sim_ops                                       4619367                       # Number of ops (including micro ops) simulated
system.voltage_domain.voltage                       1                       # Voltage in Volts
system.clk_domain.clock                          1000                       # Clock period in ticks
system.mem_ctrls.bytes_read::cpu0.inst          40256                       # Number of bytes read from this memory
system.mem_ctrls.bytes_read::cpu0.data         260352                       # Number of bytes read from this memory
system.mem_ctrls.bytes_read::cpu1.inst           3520                       # Number of bytes read from this memory
system.mem_ctrls.bytes_read::cpu1.data          36992                       # Number of bytes read from this memory
system.mem_ctrls.bytes_read::cpu2.inst           3520                       # Number of bytes read from this memory
system.mem_ctrls.bytes_read::cpu2.data          34496                       # Number of bytes read from this memory
system.mem_ctrls.bytes_read::cpu3.inst           3584                       # Number of bytes read from this memory
system.mem_ctrls.bytes_read::cpu3.data          37824                       # Number of bytes read from this memory
system.mem_ctrls.bytes_read::cpu4.inst           3520                       # Number of bytes read from this memory
system.mem_ctrls.bytes_read::cpu4.data          40512                       # Number of bytes read from this memory
system.mem_ctrls.bytes_read::cpu5.inst           3584                       # Number of bytes read from this memory
system.mem_ctrls.bytes_read::cpu5.data          43904                       # Number of bytes read from this memory
system.mem_ctrls.bytes_read::cpu6.inst           3648                       # Number of bytes read from this memory
system.mem_ctrls.bytes_read::cpu6.data          36160                       # Number of bytes read from this memory
system.mem_ctrls.bytes_read::cpu7.inst           3648                       # Number of bytes read from this memory
system.mem_ctrls.bytes_read::cpu7.data          36352                       # Number of bytes read from this memory
system.mem_ctrls.bytes_read::total             591872                       # Number of bytes read from this memory
system.mem_ctrls.bytes_inst_read::cpu0.inst        40256                       # Number of instructions bytes read from this memory
system.mem_ctrls.bytes_inst_read::cpu1.inst         3520                       # Number of instructions bytes read from this memory
system.mem_ctrls.bytes_inst_read::cpu2.inst         3520                       # Number of instructions bytes read from this memory
system.mem_ctrls.bytes_inst_read::cpu3.inst         3584                       # Number of instructions bytes read from this memory
system.mem_ctrls.bytes_inst_read::cpu4.inst         3520                       # Number of instructions bytes read from this memory
system.mem_ctrls.bytes_inst_read::cpu5.inst         3584                       # Number of instructions bytes read from this memory
system.mem_ctrls.bytes_inst_read::cpu6.inst         3648                       # Number of instructions bytes read from this memory
system.mem_ctrls.bytes_inst_read::cpu7.inst         3648                       # Number of instructions bytes read from this memory
system.mem_ctrls.bytes_inst_read::total         65280                       # Number of instructions bytes read from this memory
system.mem_ctrls.bytes_written::writebacks       363712                       # Number of bytes written to this memory
system.mem_ctrls.bytes_written::total          363712                       # Number of bytes written to this memory
system.mem_ctrls.num_reads::cpu0.inst             629                       # Number of read requests responded to by this memory
system.mem_ctrls.num_reads::cpu0.data            4068                       # Number of read requests responded to by this memory
system.mem_ctrls.num_reads::cpu1.inst              55                       # Number of read requests responded to by this memory
system.mem_ctrls.num_reads::cpu1.data             578                       # Number of read requests responded to by this memory
system.mem_ctrls.num_reads::cpu2.inst              55                       # Number of read requests responded to by this memory
system.mem_ctrls.num_reads::cpu2.data             539                       # Number of read requests responded to by this memory
system.mem_ctrls.num_reads::cpu3.inst              56                       # Number of read requests responded to by this memory
system.mem_ctrls.num_reads::cpu3.data             591                       # Number of read requests responded to by this memory
system.mem_ctrls.num_reads::cpu4.inst              55                       # Number of read requests responded to by this memory
system.mem_ctrls.num_reads::cpu4.data             633                       # Number of read requests responded to by this memory
system.mem_ctrls.num_reads::cpu5.inst              56                       # Number of read requests responded to by this memory
system.mem_ctrls.num_reads::cpu5.data             686                       # Number of read requests responded to by this memory
system.mem_ctrls.num_reads::cpu6.inst              57                       # Number of read requests responded to by this memory
system.mem_ctrls.num_reads::cpu6.data             565                       # Number of read requests responded to by this memory
system.mem_ctrls.num_reads::cpu7.inst              57                       # Number of read requests responded to by this memory
system.mem_ctrls.num_reads::cpu7.data             568                       # Number of read requests responded to by this memory
system.mem_ctrls.num_reads::total                9248                       # Number of read requests responded to by this memory
system.mem_ctrls.num_writes::writebacks          5683                       # Number of write requests responded to by this memory
system.mem_ctrls.num_writes::total               5683                       # Number of write requests responded to by this memory
system.mem_ctrls.bw_read::cpu0.inst         114121291                       # Total read bandwidth from this memory (bytes/s)
system.mem_ctrls.bw_read::cpu0.data         738069015                       # Total read bandwidth from this memory (bytes/s)
system.mem_ctrls.bw_read::cpu1.inst           9978809                       # Total read bandwidth from this memory (bytes/s)
system.mem_ctrls.bw_read::cpu1.data         104868213                       # Total read bandwidth from this memory (bytes/s)
system.mem_ctrls.bw_read::cpu2.inst           9978809                       # Total read bandwidth from this memory (bytes/s)
system.mem_ctrls.bw_read::cpu2.data          97792330                       # Total read bandwidth from this memory (bytes/s)
system.mem_ctrls.bw_read::cpu3.inst          10160242                       # Total read bandwidth from this memory (bytes/s)
system.mem_ctrls.bw_read::cpu3.data         107226841                       # Total read bandwidth from this memory (bytes/s)
system.mem_ctrls.bw_read::cpu4.inst           9978809                       # Total read bandwidth from this memory (bytes/s)
system.mem_ctrls.bw_read::cpu4.data         114847022                       # Total read bandwidth from this memory (bytes/s)
system.mem_ctrls.bw_read::cpu5.inst          10160242                       # Total read bandwidth from this memory (bytes/s)
system.mem_ctrls.bw_read::cpu5.data         124462966                       # Total read bandwidth from this memory (bytes/s)
system.mem_ctrls.bw_read::cpu6.inst          10341675                       # Total read bandwidth from this memory (bytes/s)
system.mem_ctrls.bw_read::cpu6.data         102509585                       # Total read bandwidth from this memory (bytes/s)
system.mem_ctrls.bw_read::cpu7.inst          10341675                       # Total read bandwidth from this memory (bytes/s)
system.mem_ctrls.bw_read::cpu7.data         103053884                       # Total read bandwidth from this memory (bytes/s)
system.mem_ctrls.bw_read::total            1677891410                       # Total read bandwidth from this memory (bytes/s)
system.mem_ctrls.bw_inst_read::cpu0.inst    114121291                       # Instruction read bandwidth from this memory (bytes/s)
system.mem_ctrls.bw_inst_read::cpu1.inst      9978809                       # Instruction read bandwidth from this memory (bytes/s)
system.mem_ctrls.bw_inst_read::cpu2.inst      9978809                       # Instruction read bandwidth from this memory (bytes/s)
system.mem_ctrls.bw_inst_read::cpu3.inst     10160242                       # Instruction read bandwidth from this memory (bytes/s)
system.mem_ctrls.bw_inst_read::cpu4.inst      9978809                       # Instruction read bandwidth from this memory (bytes/s)
system.mem_ctrls.bw_inst_read::cpu5.inst     10160242                       # Instruction read bandwidth from this memory (bytes/s)
system.mem_ctrls.bw_inst_read::cpu6.inst     10341675                       # Instruction read bandwidth from this memory (bytes/s)
system.mem_ctrls.bw_inst_read::cpu7.inst     10341675                       # Instruction read bandwidth from this memory (bytes/s)
system.mem_ctrls.bw_inst_read::total        185061553                       # Instruction read bandwidth from this memory (bytes/s)
system.mem_ctrls.bw_write::writebacks      1031083140                       # Write bandwidth from this memory (bytes/s)
system.mem_ctrls.bw_write::total           1031083140                       # Write bandwidth from this memory (bytes/s)
system.mem_ctrls.bw_total::writebacks      1031083140                       # Total bandwidth to/from this memory (bytes/s)
system.mem_ctrls.bw_total::cpu0.inst        114121291                       # Total bandwidth to/from this memory (bytes/s)
system.mem_ctrls.bw_total::cpu0.data        738069015                       # Total bandwidth to/from this memory (bytes/s)
system.mem_ctrls.bw_total::cpu1.inst          9978809                       # Total bandwidth to/from this memory (bytes/s)
system.mem_ctrls.bw_total::cpu1.data        104868213                       # Total bandwidth to/from this memory (bytes/s)
system.mem_ctrls.bw_total::cpu2.inst          9978809                       # Total bandwidth to/from this memory (bytes/s)
system.mem_ctrls.bw_total::cpu2.data         97792330                       # Total bandwidth to/from this memory (bytes/s)
system.mem_ctrls.bw_total::cpu3.inst         10160242                       # Total bandwidth to/from this memory (bytes/s)
system.mem_ctrls.bw_total::cpu3.data        107226841                       # Total bandwidth to/from this memory (bytes/s)
system.mem_ctrls.bw_total::cpu4.inst          9978809                       # Total bandwidth to/from this memory (bytes/s)
system.mem_ctrls.bw_total::cpu4.data        114847022                       # Total bandwidth to/from this memory (bytes/s)
system.mem_ctrls.bw_total::cpu5.inst         10160242                       # Total bandwidth to/from this memory (bytes/s)
system.mem_ctrls.bw_total::cpu5.data        124462966                       # Total bandwidth to/from this memory (bytes/s)
system.mem_ctrls.bw_total::cpu6.inst         10341675                       # Total bandwidth to/from this memory (bytes/s)
system.mem_ctrls.bw_total::cpu6.data        102509585                       # Total bandwidth to/from this memory (bytes/s)
system.mem_ctrls.bw_total::cpu7.inst         10341675                       # Total bandwidth to/from this memory (bytes/s)
system.mem_ctrls.bw_total::cpu7.data        103053884                       # Total bandwidth to/from this memory (bytes/s)
system.mem_ctrls.bw_total::total           2708974550                       # Total bandwidth to/from this memory (bytes/s)
system.mem_ctrls.readReqs                        9249                       # Number of read requests accepted
system.mem_ctrls.writeReqs                       5683                       # Number of write requests accepted
system.mem_ctrls.readBursts                      9249                       # Number of DRAM read bursts, including those serviced by the write queue
system.mem_ctrls.writeBursts                     5683                       # Number of DRAM write bursts, including those merged in the write queue
system.mem_ctrls.bytesReadDRAM                 356992                       # Total number of bytes read from DRAM
system.mem_ctrls.bytesReadWrQ                  234944                       # Total number of bytes read from write queue
system.mem_ctrls.bytesWritten                  160960                       # Total number of bytes written to DRAM
system.mem_ctrls.bytesReadSys                  591936                       # Total read bytes from the system interface side
system.mem_ctrls.bytesWrittenSys               363712                       # Total written bytes from the system interface side
system.mem_ctrls.servicedByWrQ                   3671                       # Number of DRAM read bursts serviced by the write queue
system.mem_ctrls.mergedWrBursts                  3145                       # Number of DRAM write bursts merged with an existing one
system.mem_ctrls.neitherReadNorWriteReqs           15                       # Number of requests that are neither read nor write
system.mem_ctrls.perBankRdBursts::0               222                       # Per bank write bursts
system.mem_ctrls.perBankRdBursts::1               431                       # Per bank write bursts
system.mem_ctrls.perBankRdBursts::2               227                       # Per bank write bursts
system.mem_ctrls.perBankRdBursts::3               698                       # Per bank write bursts
system.mem_ctrls.perBankRdBursts::4               361                       # Per bank write bursts
system.mem_ctrls.perBankRdBursts::5               537                       # Per bank write bursts
system.mem_ctrls.perBankRdBursts::6               418                       # Per bank write bursts
system.mem_ctrls.perBankRdBursts::7               473                       # Per bank write bursts
system.mem_ctrls.perBankRdBursts::8               287                       # Per bank write bursts
system.mem_ctrls.perBankRdBursts::9               296                       # Per bank write bursts
system.mem_ctrls.perBankRdBursts::10              256                       # Per bank write bursts
system.mem_ctrls.perBankRdBursts::11              288                       # Per bank write bursts
system.mem_ctrls.perBankRdBursts::12              276                       # Per bank write bursts
system.mem_ctrls.perBankRdBursts::13              312                       # Per bank write bursts
system.mem_ctrls.perBankRdBursts::14              302                       # Per bank write bursts
system.mem_ctrls.perBankRdBursts::15              194                       # Per bank write bursts
system.mem_ctrls.perBankWrBursts::0                 6                       # Per bank write bursts
system.mem_ctrls.perBankWrBursts::1                32                       # Per bank write bursts
system.mem_ctrls.perBankWrBursts::2                59                       # Per bank write bursts
system.mem_ctrls.perBankWrBursts::3               201                       # Per bank write bursts
system.mem_ctrls.perBankWrBursts::4               140                       # Per bank write bursts
system.mem_ctrls.perBankWrBursts::5               165                       # Per bank write bursts
system.mem_ctrls.perBankWrBursts::6               136                       # Per bank write bursts
system.mem_ctrls.perBankWrBursts::7               195                       # Per bank write bursts
system.mem_ctrls.perBankWrBursts::8               129                       # Per bank write bursts
system.mem_ctrls.perBankWrBursts::9               130                       # Per bank write bursts
system.mem_ctrls.perBankWrBursts::10              128                       # Per bank write bursts
system.mem_ctrls.perBankWrBursts::11              269                       # Per bank write bursts
system.mem_ctrls.perBankWrBursts::12              276                       # Per bank write bursts
system.mem_ctrls.perBankWrBursts::13              289                       # Per bank write bursts
system.mem_ctrls.perBankWrBursts::14              281                       # Per bank write bursts
system.mem_ctrls.perBankWrBursts::15               79                       # Per bank write bursts
system.mem_ctrls.numRdRetry                         0                       # Number of times read queue was full causing retry
system.mem_ctrls.numWrRetry                         0                       # Number of times write queue was full causing retry
system.mem_ctrls.totGap                     352745000                       # Total gap between requests
system.mem_ctrls.readPktSize::0                     0                       # Read request sizes (log2)
system.mem_ctrls.readPktSize::1                     0                       # Read request sizes (log2)
system.mem_ctrls.readPktSize::2                     0                       # Read request sizes (log2)
system.mem_ctrls.readPktSize::3                     0                       # Read request sizes (log2)
system.mem_ctrls.readPktSize::4                     0                       # Read request sizes (log2)
system.mem_ctrls.readPktSize::5                     0                       # Read request sizes (log2)
system.mem_ctrls.readPktSize::6                  9249                       # Read request sizes (log2)
system.mem_ctrls.writePktSize::0                    0                       # Write request sizes (log2)
system.mem_ctrls.writePktSize::1                    0                       # Write request sizes (log2)
system.mem_ctrls.writePktSize::2                    0                       # Write request sizes (log2)
system.mem_ctrls.writePktSize::3                    0                       # Write request sizes (log2)
system.mem_ctrls.writePktSize::4                    0                       # Write request sizes (log2)
system.mem_ctrls.writePktSize::5                    0                       # Write request sizes (log2)
system.mem_ctrls.writePktSize::6                 5683                       # Write request sizes (log2)
system.mem_ctrls.rdQLenPdf::0                    4245                       # What read queue length does an incoming req see
system.mem_ctrls.rdQLenPdf::1                     604                       # What read queue length does an incoming req see
system.mem_ctrls.rdQLenPdf::2                     201                       # What read queue length does an incoming req see
system.mem_ctrls.rdQLenPdf::3                     100                       # What read queue length does an incoming req see
system.mem_ctrls.rdQLenPdf::4                      66                       # What read queue length does an incoming req see
system.mem_ctrls.rdQLenPdf::5                      52                       # What read queue length does an incoming req see
system.mem_ctrls.rdQLenPdf::6                      57                       # What read queue length does an incoming req see
system.mem_ctrls.rdQLenPdf::7                      50                       # What read queue length does an incoming req see
system.mem_ctrls.rdQLenPdf::8                      49                       # What read queue length does an incoming req see
system.mem_ctrls.rdQLenPdf::9                      38                       # What read queue length does an incoming req see
system.mem_ctrls.rdQLenPdf::10                     46                       # What read queue length does an incoming req see
system.mem_ctrls.rdQLenPdf::11                     24                       # What read queue length does an incoming req see
system.mem_ctrls.rdQLenPdf::12                     21                       # What read queue length does an incoming req see
system.mem_ctrls.rdQLenPdf::13                      9                       # What read queue length does an incoming req see
system.mem_ctrls.rdQLenPdf::14                      9                       # What read queue length does an incoming req see
system.mem_ctrls.rdQLenPdf::15                      4                       # What read queue length does an incoming req see
system.mem_ctrls.rdQLenPdf::16                      1                       # What read queue length does an incoming req see
system.mem_ctrls.rdQLenPdf::17                      1                       # What read queue length does an incoming req see
system.mem_ctrls.rdQLenPdf::18                      1                       # What read queue length does an incoming req see
system.mem_ctrls.rdQLenPdf::19                      0                       # What read queue length does an incoming req see
system.mem_ctrls.rdQLenPdf::20                      0                       # What read queue length does an incoming req see
system.mem_ctrls.rdQLenPdf::21                      0                       # What read queue length does an incoming req see
system.mem_ctrls.rdQLenPdf::22                      0                       # What read queue length does an incoming req see
system.mem_ctrls.rdQLenPdf::23                      0                       # What read queue length does an incoming req see
system.mem_ctrls.rdQLenPdf::24                      0                       # What read queue length does an incoming req see
system.mem_ctrls.rdQLenPdf::25                      0                       # What read queue length does an incoming req see
system.mem_ctrls.rdQLenPdf::26                      0                       # What read queue length does an incoming req see
system.mem_ctrls.rdQLenPdf::27                      0                       # What read queue length does an incoming req see
system.mem_ctrls.rdQLenPdf::28                      0                       # What read queue length does an incoming req see
system.mem_ctrls.rdQLenPdf::29                      0                       # What read queue length does an incoming req see
system.mem_ctrls.rdQLenPdf::30                      0                       # What read queue length does an incoming req see
system.mem_ctrls.rdQLenPdf::31                      0                       # What read queue length does an incoming req see
system.mem_ctrls.wrQLenPdf::0                       1                       # What write queue length does an incoming req see
system.mem_ctrls.wrQLenPdf::1                       1                       # What write queue length does an incoming req see
system.mem_ctrls.wrQLenPdf::2                       1                       # What write queue length does an incoming req see
system.mem_ctrls.wrQLenPdf::3                       1                       # What write queue length does an incoming req see
system.mem_ctrls.wrQLenPdf::4                       1                       # What write queue length does an incoming req see
system.mem_ctrls.wrQLenPdf::5                       1                       # What write queue length does an incoming req see
system.mem_ctrls.wrQLenPdf::6                       1                       # What write queue length does an incoming req see
system.mem_ctrls.wrQLenPdf::7                       1                       # What write queue length does an incoming req see
system.mem_ctrls.wrQLenPdf::8                       1                       # What write queue length does an incoming req see
system.mem_ctrls.wrQLenPdf::9                       1                       # What write queue length does an incoming req see
system.mem_ctrls.wrQLenPdf::10                      1                       # What write queue length does an incoming req see
system.mem_ctrls.wrQLenPdf::11                      1                       # What write queue length does an incoming req see
system.mem_ctrls.wrQLenPdf::12                      1                       # What write queue length does an incoming req see
system.mem_ctrls.wrQLenPdf::13                      1                       # What write queue length does an incoming req see
system.mem_ctrls.wrQLenPdf::14                      1                       # What write queue length does an incoming req see
system.mem_ctrls.wrQLenPdf::15                     20                       # What write queue length does an incoming req see
system.mem_ctrls.wrQLenPdf::16                     24                       # What write queue length does an incoming req see
system.mem_ctrls.wrQLenPdf::17                    145                       # What write queue length does an incoming req see
system.mem_ctrls.wrQLenPdf::18                    155                       # What write queue length does an incoming req see
system.mem_ctrls.wrQLenPdf::19                    157                       # What write queue length does an incoming req see
system.mem_ctrls.wrQLenPdf::20                    154                       # What write queue length does an incoming req see
system.mem_ctrls.wrQLenPdf::21                    159                       # What write queue length does an incoming req see
system.mem_ctrls.wrQLenPdf::22                    159                       # What write queue length does an incoming req see
system.mem_ctrls.wrQLenPdf::23                    156                       # What write queue length does an incoming req see
system.mem_ctrls.wrQLenPdf::24                    155                       # What write queue length does an incoming req see
system.mem_ctrls.wrQLenPdf::25                    155                       # What write queue length does an incoming req see
system.mem_ctrls.wrQLenPdf::26                    158                       # What write queue length does an incoming req see
system.mem_ctrls.wrQLenPdf::27                    154                       # What write queue length does an incoming req see
system.mem_ctrls.wrQLenPdf::28                    154                       # What write queue length does an incoming req see
system.mem_ctrls.wrQLenPdf::29                    156                       # What write queue length does an incoming req see
system.mem_ctrls.wrQLenPdf::30                    154                       # What write queue length does an incoming req see
system.mem_ctrls.wrQLenPdf::31                    154                       # What write queue length does an incoming req see
system.mem_ctrls.wrQLenPdf::32                    154                       # What write queue length does an incoming req see
system.mem_ctrls.wrQLenPdf::33                      0                       # What write queue length does an incoming req see
system.mem_ctrls.wrQLenPdf::34                      0                       # What write queue length does an incoming req see
system.mem_ctrls.wrQLenPdf::35                      0                       # What write queue length does an incoming req see
system.mem_ctrls.wrQLenPdf::36                      0                       # What write queue length does an incoming req see
system.mem_ctrls.wrQLenPdf::37                      0                       # What write queue length does an incoming req see
system.mem_ctrls.wrQLenPdf::38                      0                       # What write queue length does an incoming req see
system.mem_ctrls.wrQLenPdf::39                      0                       # What write queue length does an incoming req see
system.mem_ctrls.wrQLenPdf::40                      0                       # What write queue length does an incoming req see
system.mem_ctrls.wrQLenPdf::41                      0                       # What write queue length does an incoming req see
system.mem_ctrls.wrQLenPdf::42                      0                       # What write queue length does an incoming req see
system.mem_ctrls.wrQLenPdf::43                      0                       # What write queue length does an incoming req see
system.mem_ctrls.wrQLenPdf::44                      0                       # What write queue length does an incoming req see
system.mem_ctrls.wrQLenPdf::45                      0                       # What write queue length does an incoming req see
system.mem_ctrls.wrQLenPdf::46                      0                       # What write queue length does an incoming req see
system.mem_ctrls.wrQLenPdf::47                      0                       # What write queue length does an incoming req see
system.mem_ctrls.wrQLenPdf::48                      0                       # What write queue length does an incoming req see
system.mem_ctrls.wrQLenPdf::49                      0                       # What write queue length does an incoming req see
system.mem_ctrls.wrQLenPdf::50                      0                       # What write queue length does an incoming req see
system.mem_ctrls.wrQLenPdf::51                      0                       # What write queue length does an incoming req see
system.mem_ctrls.wrQLenPdf::52                      0                       # What write queue length does an incoming req see
system.mem_ctrls.wrQLenPdf::53                      0                       # What write queue length does an incoming req see
system.mem_ctrls.wrQLenPdf::54                      0                       # What write queue length does an incoming req see
system.mem_ctrls.wrQLenPdf::55                      0                       # What write queue length does an incoming req see
system.mem_ctrls.wrQLenPdf::56                      0                       # What write queue length does an incoming req see
system.mem_ctrls.wrQLenPdf::57                      0                       # What write queue length does an incoming req see
system.mem_ctrls.wrQLenPdf::58                      0                       # What write queue length does an incoming req see
system.mem_ctrls.wrQLenPdf::59                      0                       # What write queue length does an incoming req see
system.mem_ctrls.wrQLenPdf::60                      0                       # What write queue length does an incoming req see
system.mem_ctrls.wrQLenPdf::61                      0                       # What write queue length does an incoming req see
system.mem_ctrls.wrQLenPdf::62                      0                       # What write queue length does an incoming req see
system.mem_ctrls.wrQLenPdf::63                      0                       # What write queue length does an incoming req see
system.mem_ctrls.bytesPerActivate::samples          961                       # Bytes accessed per row activation
system.mem_ctrls.bytesPerActivate::mean    536.041623                       # Bytes accessed per row activation
system.mem_ctrls.bytesPerActivate::gmean   328.461070                       # Bytes accessed per row activation
system.mem_ctrls.bytesPerActivate::stdev   412.846458                       # Bytes accessed per row activation
system.mem_ctrls.bytesPerActivate::0-127          223     23.20%     23.20% # Bytes accessed per row activation
system.mem_ctrls.bytesPerActivate::128-255          148     15.40%     38.61% # Bytes accessed per row activation
system.mem_ctrls.bytesPerActivate::256-383           68      7.08%     45.68% # Bytes accessed per row activation
system.mem_ctrls.bytesPerActivate::384-511           60      6.24%     51.93% # Bytes accessed per row activation
system.mem_ctrls.bytesPerActivate::512-639           47      4.89%     56.82% # Bytes accessed per row activation
system.mem_ctrls.bytesPerActivate::640-767           24      2.50%     59.31% # Bytes accessed per row activation
system.mem_ctrls.bytesPerActivate::768-895           22      2.29%     61.60% # Bytes accessed per row activation
system.mem_ctrls.bytesPerActivate::896-1023           37      3.85%     65.45% # Bytes accessed per row activation
system.mem_ctrls.bytesPerActivate::1024-1151          332     34.55%    100.00% # Bytes accessed per row activation
system.mem_ctrls.bytesPerActivate::total          961                       # Bytes accessed per row activation
system.mem_ctrls.rdPerTurnAround::samples          154                       # Reads before turning the bus around for writes
system.mem_ctrls.rdPerTurnAround::mean      35.967532                       # Reads before turning the bus around for writes
system.mem_ctrls.rdPerTurnAround::gmean     22.391758                       # Reads before turning the bus around for writes
system.mem_ctrls.rdPerTurnAround::stdev    102.769074                       # Reads before turning the bus around for writes
system.mem_ctrls.rdPerTurnAround::0-63            143     92.86%     92.86% # Reads before turning the bus around for writes
system.mem_ctrls.rdPerTurnAround::64-127            6      3.90%     96.75% # Reads before turning the bus around for writes
system.mem_ctrls.rdPerTurnAround::128-191            2      1.30%     98.05% # Reads before turning the bus around for writes
system.mem_ctrls.rdPerTurnAround::192-255            1      0.65%     98.70% # Reads before turning the bus around for writes
system.mem_ctrls.rdPerTurnAround::320-383            1      0.65%     99.35% # Reads before turning the bus around for writes
system.mem_ctrls.rdPerTurnAround::1216-1279            1      0.65%    100.00% # Reads before turning the bus around for writes
system.mem_ctrls.rdPerTurnAround::total           154                       # Reads before turning the bus around for writes
system.mem_ctrls.wrPerTurnAround::samples          154                       # Writes before turning the bus around for reads
system.mem_ctrls.wrPerTurnAround::mean      16.331169                       # Writes before turning the bus around for reads
system.mem_ctrls.wrPerTurnAround::gmean     16.311280                       # Writes before turning the bus around for reads
system.mem_ctrls.wrPerTurnAround::stdev      0.840597                       # Writes before turning the bus around for reads
system.mem_ctrls.wrPerTurnAround::16              131     85.06%     85.06% # Writes before turning the bus around for reads
system.mem_ctrls.wrPerTurnAround::17                3      1.95%     87.01% # Writes before turning the bus around for reads
system.mem_ctrls.wrPerTurnAround::18               13      8.44%     95.45% # Writes before turning the bus around for reads
system.mem_ctrls.wrPerTurnAround::19                6      3.90%     99.35% # Writes before turning the bus around for reads
system.mem_ctrls.wrPerTurnAround::20                1      0.65%    100.00% # Writes before turning the bus around for reads
system.mem_ctrls.wrPerTurnAround::total           154                       # Writes before turning the bus around for reads
system.mem_ctrls.totQLat                     69531000                       # Total ticks spent queuing
system.mem_ctrls.totMemAccLat               174118500                       # Total ticks spent from burst creation until serviced by the DRAM
system.mem_ctrls.totBusLat                   27890000                       # Total ticks spent in databus transfers
system.mem_ctrls.avgQLat                     12465.22                       # Average queueing delay per DRAM burst
system.mem_ctrls.avgBusLat                    5000.00                       # Average bus latency per DRAM burst
system.mem_ctrls.avgMemAccLat                31215.22                       # Average memory access latency per DRAM burst
system.mem_ctrls.avgRdBW                      1012.03                       # Average DRAM read bandwidth in MiByte/s
system.mem_ctrls.avgWrBW                       456.30                       # Average achieved write bandwidth in MiByte/s
system.mem_ctrls.avgRdBWSys                   1678.07                       # Average system read bandwidth in MiByte/s
system.mem_ctrls.avgWrBWSys                   1031.08                       # Average system write bandwidth in MiByte/s
system.mem_ctrls.peakBW                      12800.00                       # Theoretical peak bandwidth in MiByte/s
system.mem_ctrls.busUtil                        11.47                       # Data bus utilization in percentage
system.mem_ctrls.busUtilRead                     7.91                       # Data bus utilization in percentage for reads
system.mem_ctrls.busUtilWrite                    3.56                       # Data bus utilization in percentage for writes
system.mem_ctrls.avgRdQLen                       1.30                       # Average read queue length when enqueuing
system.mem_ctrls.avgWrQLen                      21.56                       # Average write queue length when enqueuing
system.mem_ctrls.readRowHits                     4787                       # Number of row buffer hits during reads
system.mem_ctrls.writeRowHits                    2336                       # Number of row buffer hits during writes
system.mem_ctrls.readRowHitRate                 85.82                       # Row buffer hit rate for reads
system.mem_ctrls.writeRowHitRate                92.04                       # Row buffer hit rate for writes
system.mem_ctrls.avgGap                      23623.43                       # Average gap between requests
system.mem_ctrls.pageHitRate                    87.76                       # Row buffer hit rate, read and write combined
system.mem_ctrls_0.actEnergy                  4377240                       # Energy for activate commands per rank (pJ)
system.mem_ctrls_0.preEnergy                  2388375                       # Energy for precharge commands per rank (pJ)
system.mem_ctrls_0.readEnergy                26161200                       # Energy for read commands per rank (pJ)
system.mem_ctrls_0.writeEnergy                5955120                       # Energy for write commands per rank (pJ)
system.mem_ctrls_0.refreshEnergy             22885200                       # Energy for refresh commands per rank (pJ)
system.mem_ctrls_0.actBackEnergy            214743510                       # Energy for active background per rank (pJ)
system.mem_ctrls_0.preBackEnergy             22013250                       # Energy for precharge background per rank (pJ)
system.mem_ctrls_0.totalEnergy              298523895                       # Total energy per rank (pJ)
system.mem_ctrls_0.averagePower            851.365591                       # Core power per rank (mW)
system.mem_ctrls_0.memoryStateTime::IDLE     34728750                       # Time in different power states
system.mem_ctrls_0.memoryStateTime::REF      11700000                       # Time in different power states
system.mem_ctrls_0.memoryStateTime::PRE_PDN            0                       # Time in different power states
system.mem_ctrls_0.memoryStateTime::ACT     304226250                       # Time in different power states
system.mem_ctrls_0.memoryStateTime::ACT_PDN            0                       # Time in different power states
system.mem_ctrls_1.actEnergy                  2857680                       # Energy for activate commands per rank (pJ)
system.mem_ctrls_1.preEnergy                  1559250                       # Energy for precharge commands per rank (pJ)
system.mem_ctrls_1.readEnergy                16957200                       # Energy for read commands per rank (pJ)
system.mem_ctrls_1.writeEnergy               10238400                       # Energy for write commands per rank (pJ)
system.mem_ctrls_1.refreshEnergy             22885200                       # Energy for refresh commands per rank (pJ)
system.mem_ctrls_1.actBackEnergy            206445735                       # Energy for active background per rank (pJ)
system.mem_ctrls_1.preBackEnergy             29292000                       # Energy for precharge background per rank (pJ)
system.mem_ctrls_1.totalEnergy              290235465                       # Total energy per rank (pJ)
system.mem_ctrls_1.averagePower            827.727670                       # Core power per rank (mW)
system.mem_ctrls_1.memoryStateTime::IDLE     47300500                       # Time in different power states
system.mem_ctrls_1.memoryStateTime::REF      11700000                       # Time in different power states
system.mem_ctrls_1.memoryStateTime::PRE_PDN            0                       # Time in different power states
system.mem_ctrls_1.memoryStateTime::ACT     291725500                       # Time in different power states
system.mem_ctrls_1.memoryStateTime::ACT_PDN            0                       # Time in different power states
system.cpu0.branchPred.lookups                  53621                       # Number of BP lookups
system.cpu0.branchPred.condPredicted            51181                       # Number of conditional branches predicted
system.cpu0.branchPred.condIncorrect             1945                       # Number of conditional branches incorrect
system.cpu0.branchPred.BTBLookups               48056                       # Number of BTB lookups
system.cpu0.branchPred.BTBHits                  47218                       # Number of BTB hits
system.cpu0.branchPred.BTBCorrect                   0                       # Number of correct BTB predictions (this stat may not work properly.
system.cpu0.branchPred.BTBHitPct            98.256201                       # BTB Hit Percentage
system.cpu0.branchPred.usedRAS                    812                       # Number of times the RAS was used to get a target.
system.cpu0.branchPred.RASInCorrect                 7                       # Number of incorrect RAS predictions.
system.cpu_voltage_domain.voltage                   1                       # Voltage in Volts
system.cpu_clk_domain.clock                       500                       # Clock period in ticks
system.cpu0.dstage2_mmu.stage2_tlb.walker.walks            0                       # Table walker walks requested
system.cpu0.dstage2_mmu.stage2_tlb.walker.walkRequestOrigin_Requested::Data            0                       # Table walker requests started/completed, data/inst
system.cpu0.dstage2_mmu.stage2_tlb.walker.walkRequestOrigin_Requested::Inst            0                       # Table walker requests started/completed, data/inst
system.cpu0.dstage2_mmu.stage2_tlb.walker.walkRequestOrigin_Requested::total            0                       # Table walker requests started/completed, data/inst
system.cpu0.dstage2_mmu.stage2_tlb.walker.walkRequestOrigin_Completed::Data            0                       # Table walker requests started/completed, data/inst
system.cpu0.dstage2_mmu.stage2_tlb.walker.walkRequestOrigin_Completed::Inst            0                       # Table walker requests started/completed, data/inst
system.cpu0.dstage2_mmu.stage2_tlb.walker.walkRequestOrigin_Completed::total            0                       # Table walker requests started/completed, data/inst
system.cpu0.dstage2_mmu.stage2_tlb.walker.walkRequestOrigin::total            0                       # Table walker requests started/completed, data/inst
system.cpu0.dstage2_mmu.stage2_tlb.inst_hits            0                       # ITB inst hits
system.cpu0.dstage2_mmu.stage2_tlb.inst_misses            0                       # ITB inst misses
system.cpu0.dstage2_mmu.stage2_tlb.read_hits            0                       # DTB read hits
system.cpu0.dstage2_mmu.stage2_tlb.read_misses            0                       # DTB read misses
system.cpu0.dstage2_mmu.stage2_tlb.write_hits            0                       # DTB write hits
system.cpu0.dstage2_mmu.stage2_tlb.write_misses            0                       # DTB write misses
system.cpu0.dstage2_mmu.stage2_tlb.flush_tlb            0                       # Number of times complete TLB was flushed
system.cpu0.dstage2_mmu.stage2_tlb.flush_tlb_mva            0                       # Number of times TLB was flushed by MVA
system.cpu0.dstage2_mmu.stage2_tlb.flush_tlb_mva_asid            0                       # Number of times TLB was flushed by MVA & ASID
system.cpu0.dstage2_mmu.stage2_tlb.flush_tlb_asid            0                       # Number of times TLB was flushed by ASID
system.cpu0.dstage2_mmu.stage2_tlb.flush_entries            0                       # Number of entries that have been flushed from TLB
system.cpu0.dstage2_mmu.stage2_tlb.align_faults            0                       # Number of TLB faults due to alignment restrictions
system.cpu0.dstage2_mmu.stage2_tlb.prefetch_faults            0                       # Number of TLB faults due to prefetch
system.cpu0.dstage2_mmu.stage2_tlb.domain_faults            0                       # Number of TLB faults due to domain restrictions
system.cpu0.dstage2_mmu.stage2_tlb.perms_faults            0                       # Number of TLB faults due to permissions restrictions
system.cpu0.dstage2_mmu.stage2_tlb.read_accesses            0                       # DTB read accesses
system.cpu0.dstage2_mmu.stage2_tlb.write_accesses            0                       # DTB write accesses
system.cpu0.dstage2_mmu.stage2_tlb.inst_accesses            0                       # ITB inst accesses
system.cpu0.dstage2_mmu.stage2_tlb.hits             0                       # DTB hits
system.cpu0.dstage2_mmu.stage2_tlb.misses            0                       # DTB misses
system.cpu0.dstage2_mmu.stage2_tlb.accesses            0                       # DTB accesses
system.cpu0.dtb.walker.walks                        0                       # Table walker walks requested
system.cpu0.dtb.walker.walkRequestOrigin_Requested::Data            0                       # Table walker requests started/completed, data/inst
system.cpu0.dtb.walker.walkRequestOrigin_Requested::Inst            0                       # Table walker requests started/completed, data/inst
system.cpu0.dtb.walker.walkRequestOrigin_Requested::total            0                       # Table walker requests started/completed, data/inst
system.cpu0.dtb.walker.walkRequestOrigin_Completed::Data            0                       # Table walker requests started/completed, data/inst
system.cpu0.dtb.walker.walkRequestOrigin_Completed::Inst            0                       # Table walker requests started/completed, data/inst
system.cpu0.dtb.walker.walkRequestOrigin_Completed::total            0                       # Table walker requests started/completed, data/inst
system.cpu0.dtb.walker.walkRequestOrigin::total            0                       # Table walker requests started/completed, data/inst
system.cpu0.dtb.inst_hits                           0                       # ITB inst hits
system.cpu0.dtb.inst_misses                         0                       # ITB inst misses
system.cpu0.dtb.read_hits                           0                       # DTB read hits
system.cpu0.dtb.read_misses                         0                       # DTB read misses
system.cpu0.dtb.write_hits                          0                       # DTB write hits
system.cpu0.dtb.write_misses                        0                       # DTB write misses
system.cpu0.dtb.flush_tlb                           0                       # Number of times complete TLB was flushed
system.cpu0.dtb.flush_tlb_mva                       0                       # Number of times TLB was flushed by MVA
system.cpu0.dtb.flush_tlb_mva_asid                  0                       # Number of times TLB was flushed by MVA & ASID
system.cpu0.dtb.flush_tlb_asid                      0                       # Number of times TLB was flushed by ASID
system.cpu0.dtb.flush_entries                       0                       # Number of entries that have been flushed from TLB
system.cpu0.dtb.align_faults                        0                       # Number of TLB faults due to alignment restrictions
system.cpu0.dtb.prefetch_faults                     0                       # Number of TLB faults due to prefetch
system.cpu0.dtb.domain_faults                       0                       # Number of TLB faults due to domain restrictions
system.cpu0.dtb.perms_faults                        0                       # Number of TLB faults due to permissions restrictions
system.cpu0.dtb.read_accesses                       0                       # DTB read accesses
system.cpu0.dtb.write_accesses                      0                       # DTB write accesses
system.cpu0.dtb.inst_accesses                       0                       # ITB inst accesses
system.cpu0.dtb.hits                                0                       # DTB hits
system.cpu0.dtb.misses                              0                       # DTB misses
system.cpu0.dtb.accesses                            0                       # DTB accesses
system.cpu0.istage2_mmu.stage2_tlb.walker.walks            0                       # Table walker walks requested
system.cpu0.istage2_mmu.stage2_tlb.walker.walkRequestOrigin_Requested::Data            0                       # Table walker requests started/completed, data/inst
system.cpu0.istage2_mmu.stage2_tlb.walker.walkRequestOrigin_Requested::Inst            0                       # Table walker requests started/completed, data/inst
system.cpu0.istage2_mmu.stage2_tlb.walker.walkRequestOrigin_Requested::total            0                       # Table walker requests started/completed, data/inst
system.cpu0.istage2_mmu.stage2_tlb.walker.walkRequestOrigin_Completed::Data            0                       # Table walker requests started/completed, data/inst
system.cpu0.istage2_mmu.stage2_tlb.walker.walkRequestOrigin_Completed::Inst            0                       # Table walker requests started/completed, data/inst
system.cpu0.istage2_mmu.stage2_tlb.walker.walkRequestOrigin_Completed::total            0                       # Table walker requests started/completed, data/inst
system.cpu0.istage2_mmu.stage2_tlb.walker.walkRequestOrigin::total            0                       # Table walker requests started/completed, data/inst
system.cpu0.istage2_mmu.stage2_tlb.inst_hits            0                       # ITB inst hits
system.cpu0.istage2_mmu.stage2_tlb.inst_misses            0                       # ITB inst misses
system.cpu0.istage2_mmu.stage2_tlb.read_hits            0                       # DTB read hits
system.cpu0.istage2_mmu.stage2_tlb.read_misses            0                       # DTB read misses
system.cpu0.istage2_mmu.stage2_tlb.write_hits            0                       # DTB write hits
system.cpu0.istage2_mmu.stage2_tlb.write_misses            0                       # DTB write misses
system.cpu0.istage2_mmu.stage2_tlb.flush_tlb            0                       # Number of times complete TLB was flushed
system.cpu0.istage2_mmu.stage2_tlb.flush_tlb_mva            0                       # Number of times TLB was flushed by MVA
system.cpu0.istage2_mmu.stage2_tlb.flush_tlb_mva_asid            0                       # Number of times TLB was flushed by MVA & ASID
system.cpu0.istage2_mmu.stage2_tlb.flush_tlb_asid            0                       # Number of times TLB was flushed by ASID
system.cpu0.istage2_mmu.stage2_tlb.flush_entries            0                       # Number of entries that have been flushed from TLB
system.cpu0.istage2_mmu.stage2_tlb.align_faults            0                       # Number of TLB faults due to alignment restrictions
system.cpu0.istage2_mmu.stage2_tlb.prefetch_faults            0                       # Number of TLB faults due to prefetch
system.cpu0.istage2_mmu.stage2_tlb.domain_faults            0                       # Number of TLB faults due to domain restrictions
system.cpu0.istage2_mmu.stage2_tlb.perms_faults            0                       # Number of TLB faults due to permissions restrictions
system.cpu0.istage2_mmu.stage2_tlb.read_accesses            0                       # DTB read accesses
system.cpu0.istage2_mmu.stage2_tlb.write_accesses            0                       # DTB write accesses
system.cpu0.istage2_mmu.stage2_tlb.inst_accesses            0                       # ITB inst accesses
system.cpu0.istage2_mmu.stage2_tlb.hits             0                       # DTB hits
system.cpu0.istage2_mmu.stage2_tlb.misses            0                       # DTB misses
system.cpu0.istage2_mmu.stage2_tlb.accesses            0                       # DTB accesses
system.cpu0.itb.walker.walks                        0                       # Table walker walks requested
system.cpu0.itb.walker.walkRequestOrigin_Requested::Data            0                       # Table walker requests started/completed, data/inst
system.cpu0.itb.walker.walkRequestOrigin_Requested::Inst            0                       # Table walker requests started/completed, data/inst
system.cpu0.itb.walker.walkRequestOrigin_Requested::total            0                       # Table walker requests started/completed, data/inst
system.cpu0.itb.walker.walkRequestOrigin_Completed::Data            0                       # Table walker requests started/completed, data/inst
system.cpu0.itb.walker.walkRequestOrigin_Completed::Inst            0                       # Table walker requests started/completed, data/inst
system.cpu0.itb.walker.walkRequestOrigin_Completed::total            0                       # Table walker requests started/completed, data/inst
system.cpu0.itb.walker.walkRequestOrigin::total            0                       # Table walker requests started/completed, data/inst
system.cpu0.itb.inst_hits                           0                       # ITB inst hits
system.cpu0.itb.inst_misses                         0                       # ITB inst misses
system.cpu0.itb.read_hits                           0                       # DTB read hits
system.cpu0.itb.read_misses                         0                       # DTB read misses
system.cpu0.itb.write_hits                          0                       # DTB write hits
system.cpu0.itb.write_misses                        0                       # DTB write misses
system.cpu0.itb.flush_tlb                           0                       # Number of times complete TLB was flushed
system.cpu0.itb.flush_tlb_mva                       0                       # Number of times TLB was flushed by MVA
system.cpu0.itb.flush_tlb_mva_asid                  0                       # Number of times TLB was flushed by MVA & ASID
system.cpu0.itb.flush_tlb_asid                      0                       # Number of times TLB was flushed by ASID
system.cpu0.itb.flush_entries                       0                       # Number of entries that have been flushed from TLB
system.cpu0.itb.align_faults                        0                       # Number of TLB faults due to alignment restrictions
system.cpu0.itb.prefetch_faults                     0                       # Number of TLB faults due to prefetch
system.cpu0.itb.domain_faults                       0                       # Number of TLB faults due to domain restrictions
system.cpu0.itb.perms_faults                        0                       # Number of TLB faults due to permissions restrictions
system.cpu0.itb.read_accesses                       0                       # DTB read accesses
system.cpu0.itb.write_accesses                      0                       # DTB write accesses
system.cpu0.itb.inst_accesses                       0                       # ITB inst accesses
system.cpu0.itb.hits                                0                       # DTB hits
system.cpu0.itb.misses                              0                       # DTB misses
system.cpu0.itb.accesses                            0                       # DTB accesses
system.cpu0.workload.num_syscalls                 565                       # Number of system calls
system.cpu0.numCycles                          705496                       # number of cpu cycles simulated
system.cpu0.numWorkItemsStarted                     0                       # number of work items this cpu started
system.cpu0.numWorkItemsCompleted                   0                       # number of work items this cpu completed
system.cpu0.fetch.icacheStallCycles             17001                       # Number of cycles fetch is stalled on an Icache miss
system.cpu0.fetch.Insts                        664285                       # Number of instructions fetch has processed
system.cpu0.fetch.Branches                      53621                       # Number of branches that fetch encountered
system.cpu0.fetch.predictedBranches             48030                       # Number of branches that fetch has predicted taken
system.cpu0.fetch.Cycles                       644742                       # Number of cycles fetch has run and was not squashing or blocked
system.cpu0.fetch.SquashCycles                   3979                       # Number of cycles fetch has spent squashing
system.cpu0.fetch.MiscStallCycles                 259                       # Number of cycles fetch has spent waiting on interrupts, or bad addresses, or out of MSHRs
system.cpu0.fetch.PendingTrapStallCycles          108                       # Number of stall cycles due to pending traps
system.cpu0.fetch.IcacheWaitRetryStallCycles          484                       # Number of stall cycles due to full MSHR
system.cpu0.fetch.CacheLines                   185043                       # Number of cache lines fetched
system.cpu0.fetch.IcacheSquashes                  366                       # Number of outstanding Icache misses that were squashed
system.cpu0.fetch.rateDist::samples            664583                       # Number of instructions fetched each cycle (Total)
system.cpu0.fetch.rateDist::mean             1.049448                       # Number of instructions fetched each cycle (Total)
system.cpu0.fetch.rateDist::stdev            1.272059                       # Number of instructions fetched each cycle (Total)
system.cpu0.fetch.rateDist::underflows              0      0.00%      0.00% # Number of instructions fetched each cycle (Total)
system.cpu0.fetch.rateDist::0                  341931     51.45%     51.45% # Number of instructions fetched each cycle (Total)
system.cpu0.fetch.rateDist::1                  128001     19.26%     70.71% # Number of instructions fetched each cycle (Total)
system.cpu0.fetch.rateDist::2                   14509      2.18%     72.89% # Number of instructions fetched each cycle (Total)
system.cpu0.fetch.rateDist::3                  180142     27.11%    100.00% # Number of instructions fetched each cycle (Total)
system.cpu0.fetch.rateDist::overflows               0      0.00%    100.00% # Number of instructions fetched each cycle (Total)
system.cpu0.fetch.rateDist::min_value               0                       # Number of instructions fetched each cycle (Total)
system.cpu0.fetch.rateDist::max_value               3                       # Number of instructions fetched each cycle (Total)
system.cpu0.fetch.rateDist::total              664583                       # Number of instructions fetched each cycle (Total)
system.cpu0.fetch.branchRate                 0.076005                       # Number of branch fetches per cycle
system.cpu0.fetch.rate                       0.941586                       # Number of inst fetches per cycle
system.cpu0.decode.IdleCycles                   28865                       # Number of cycles decode is idle
system.cpu0.decode.BlockedCycles               351729                       # Number of cycles decode is blocked
system.cpu0.decode.RunCycles                   263615                       # Number of cycles decode is running
system.cpu0.decode.UnblockCycles                18713                       # Number of cycles decode is unblocking
system.cpu0.decode.SquashCycles                  1661                       # Number of cycles decode is squashing
system.cpu0.decode.BranchResolved                 940                       # Number of times decode resolved a branch
system.cpu0.decode.BranchMispred                  348                       # Number of times decode detected a branch misprediction
system.cpu0.decode.DecodedInsts                677643                       # Number of instructions handled by decode
system.cpu0.decode.SquashedInsts                 7542                       # Number of squashed instructions handled by decode
system.cpu0.rename.SquashCycles                  1661                       # Number of cycles rename is squashing
system.cpu0.rename.IdleCycles                   44535                       # Number of cycles rename is idle
system.cpu0.rename.BlockCycles                  72890                       # Number of cycles rename is blocking
system.cpu0.rename.serializeStallCycles         10347                       # count of cycles rename stalled for serializing inst
system.cpu0.rename.RunCycles                   265172                       # Number of cycles rename is running
system.cpu0.rename.UnblockCycles               269978                       # Number of cycles rename is unblocking
system.cpu0.rename.RenamedInsts                671478                       # Number of instructions processed by rename
system.cpu0.rename.SquashedInsts                 2516                       # Number of squashed instructions processed by rename
system.cpu0.rename.ROBFullEvents                 4326                       # Number of times rename has blocked due to ROB full
system.cpu0.rename.IQFullEvents                    21                       # Number of times rename has blocked due to IQ full
system.cpu0.rename.LQFullEvents                     1                       # Number of times rename has blocked due to LQ full
system.cpu0.rename.SQFullEvents                256380                       # Number of times rename has blocked due to SQ full
system.cpu0.rename.RenamedOperands             839541                       # Number of destination operands rename has renamed
system.cpu0.rename.RenameLookups              3339224                       # Number of register rename lookups that rename has made
system.cpu0.rename.int_rename_lookups         1103635                       # Number of integer rename lookups
system.cpu0.rename.fp_rename_lookups               22                       # Number of floating rename lookups
system.cpu0.rename.CommittedMaps               821517                       # Number of HB maps that are committed
system.cpu0.rename.UndoneMaps                   18024                       # Number of HB maps that are undone due to squashing
system.cpu0.rename.serializingInsts               119                       # count of serializing insts renamed
system.cpu0.rename.tempSerializingInsts           118                       # count of temporary serializing insts renamed
system.cpu0.rename.skidInsts                    43864                       # count of insts added to the skid buffer
system.cpu0.memDep0.insertedLoads              140518                       # Number of loads inserted to the mem dependence unit.
system.cpu0.memDep0.insertedStores              47738                       # Number of stores inserted to the mem dependence unit.
system.cpu0.memDep0.conflictingLoads              252                       # Number of conflicting loads.
system.cpu0.memDep0.conflictingStores             107                       # Number of conflicting stores.
system.cpu0.iq.iqInstsAdded                    668757                       # Number of instructions added to the IQ (excludes non-spec)
system.cpu0.iq.iqNonSpecInstsAdded                257                       # Number of non-speculative instructions added to the IQ
system.cpu0.iq.iqInstsIssued                   664253                       # Number of instructions issued
system.cpu0.iq.iqSquashedInstsIssued              877                       # Number of squashed instructions issued
system.cpu0.iq.iqSquashedInstsExamined          13935                       # Number of squashed instructions iterated over during squash; mainly for profiling
system.cpu0.iq.iqSquashedOperandsExamined        37446                       # Number of squashed operands that are examined and possibly removed from graph
system.cpu0.iq.iqSquashedNonSpecRemoved            56                       # Number of squashed non-spec instructions that were removed
system.cpu0.iq.issued_per_cycle::samples       664583                       # Number of insts issued each cycle
system.cpu0.iq.issued_per_cycle::mean        0.999503                       # Number of insts issued each cycle
system.cpu0.iq.issued_per_cycle::stdev       1.297908                       # Number of insts issued each cycle
system.cpu0.iq.issued_per_cycle::underflows            0      0.00%      0.00% # Number of insts issued each cycle
system.cpu0.iq.issued_per_cycle::0             377319     56.78%     56.78% # Number of insts issued each cycle
system.cpu0.iq.issued_per_cycle::1              72576     10.92%     67.70% # Number of insts issued each cycle
system.cpu0.iq.issued_per_cycle::2              72695     10.94%     78.63% # Number of insts issued each cycle
system.cpu0.iq.issued_per_cycle::3             121688     18.31%     96.94% # Number of insts issued each cycle
system.cpu0.iq.issued_per_cycle::4              20302      3.05%    100.00% # Number of insts issued each cycle
system.cpu0.iq.issued_per_cycle::5                  3      0.00%    100.00% # Number of insts issued each cycle
system.cpu0.iq.issued_per_cycle::6                  0      0.00%    100.00% # Number of insts issued each cycle
system.cpu0.iq.issued_per_cycle::7                  0      0.00%    100.00% # Number of insts issued each cycle
system.cpu0.iq.issued_per_cycle::8                  0      0.00%    100.00% # Number of insts issued each cycle
system.cpu0.iq.issued_per_cycle::overflows            0      0.00%    100.00% # Number of insts issued each cycle
system.cpu0.iq.issued_per_cycle::min_value            0                       # Number of insts issued each cycle
system.cpu0.iq.issued_per_cycle::max_value            5                       # Number of insts issued each cycle
system.cpu0.iq.issued_per_cycle::total         664583                       # Number of insts issued each cycle
system.cpu0.iq.fu_full::No_OpClass                  0      0.00%      0.00% # attempts to use FU when none available
system.cpu0.iq.fu_full::IntAlu                  20418     18.26%     18.26% # attempts to use FU when none available
system.cpu0.iq.fu_full::IntMult                  3048      2.73%     20.99% # attempts to use FU when none available
system.cpu0.iq.fu_full::IntDiv                      0      0.00%     20.99% # attempts to use FU when none available
system.cpu0.iq.fu_full::FloatAdd                    0      0.00%     20.99% # attempts to use FU when none available
system.cpu0.iq.fu_full::FloatCmp                    0      0.00%     20.99% # attempts to use FU when none available
system.cpu0.iq.fu_full::FloatCvt                    0      0.00%     20.99% # attempts to use FU when none available
system.cpu0.iq.fu_full::FloatMult                   0      0.00%     20.99% # attempts to use FU when none available
system.cpu0.iq.fu_full::FloatDiv                    0      0.00%     20.99% # attempts to use FU when none available
system.cpu0.iq.fu_full::FloatSqrt                   0      0.00%     20.99% # attempts to use FU when none available
system.cpu0.iq.fu_full::SimdAdd                     0      0.00%     20.99% # attempts to use FU when none available
system.cpu0.iq.fu_full::SimdAddAcc                  0      0.00%     20.99% # attempts to use FU when none available
system.cpu0.iq.fu_full::SimdAlu                     0      0.00%     20.99% # attempts to use FU when none available
system.cpu0.iq.fu_full::SimdCmp                     0      0.00%     20.99% # attempts to use FU when none available
system.cpu0.iq.fu_full::SimdCvt                     0      0.00%     20.99% # attempts to use FU when none available
system.cpu0.iq.fu_full::SimdMisc                    0      0.00%     20.99% # attempts to use FU when none available
system.cpu0.iq.fu_full::SimdMult                    0      0.00%     20.99% # attempts to use FU when none available
system.cpu0.iq.fu_full::SimdMultAcc                 0      0.00%     20.99% # attempts to use FU when none available
system.cpu0.iq.fu_full::SimdShift                   0      0.00%     20.99% # attempts to use FU when none available
system.cpu0.iq.fu_full::SimdShiftAcc                0      0.00%     20.99% # attempts to use FU when none available
system.cpu0.iq.fu_full::SimdSqrt                    0      0.00%     20.99% # attempts to use FU when none available
system.cpu0.iq.fu_full::SimdFloatAdd                0      0.00%     20.99% # attempts to use FU when none available
system.cpu0.iq.fu_full::SimdFloatAlu                0      0.00%     20.99% # attempts to use FU when none available
system.cpu0.iq.fu_full::SimdFloatCmp                0      0.00%     20.99% # attempts to use FU when none available
system.cpu0.iq.fu_full::SimdFloatCvt                0      0.00%     20.99% # attempts to use FU when none available
system.cpu0.iq.fu_full::SimdFloatDiv                0      0.00%     20.99% # attempts to use FU when none available
system.cpu0.iq.fu_full::SimdFloatMisc               0      0.00%     20.99% # attempts to use FU when none available
system.cpu0.iq.fu_full::SimdFloatMult               0      0.00%     20.99% # attempts to use FU when none available
system.cpu0.iq.fu_full::SimdFloatMultAcc            0      0.00%     20.99% # attempts to use FU when none available
system.cpu0.iq.fu_full::SimdFloatSqrt               0      0.00%     20.99% # attempts to use FU when none available
system.cpu0.iq.fu_full::MemRead                 69932     62.55%     83.54% # attempts to use FU when none available
system.cpu0.iq.fu_full::MemWrite                18404     16.46%    100.00% # attempts to use FU when none available
system.cpu0.iq.fu_full::IprAccess                   0      0.00%    100.00% # attempts to use FU when none available
system.cpu0.iq.fu_full::InstPrefetch                0      0.00%    100.00% # attempts to use FU when none available
system.cpu0.iq.FU_type_0::No_OpClass                0      0.00%      0.00% # Type of FU issued
system.cpu0.iq.FU_type_0::IntAlu               370911     55.84%     55.84% # Type of FU issued
system.cpu0.iq.FU_type_0::IntMult              106656     16.06%     71.90% # Type of FU issued
system.cpu0.iq.FU_type_0::IntDiv                    0      0.00%     71.90% # Type of FU issued
system.cpu0.iq.FU_type_0::FloatAdd                  0      0.00%     71.90% # Type of FU issued
system.cpu0.iq.FU_type_0::FloatCmp                  0      0.00%     71.90% # Type of FU issued
system.cpu0.iq.FU_type_0::FloatCvt                  0      0.00%     71.90% # Type of FU issued
system.cpu0.iq.FU_type_0::FloatMult                 0      0.00%     71.90% # Type of FU issued
system.cpu0.iq.FU_type_0::FloatDiv                  0      0.00%     71.90% # Type of FU issued
system.cpu0.iq.FU_type_0::FloatSqrt                 0      0.00%     71.90% # Type of FU issued
system.cpu0.iq.FU_type_0::SimdAdd                   0      0.00%     71.90% # Type of FU issued
system.cpu0.iq.FU_type_0::SimdAddAcc                0      0.00%     71.90% # Type of FU issued
system.cpu0.iq.FU_type_0::SimdAlu                   0      0.00%     71.90% # Type of FU issued
system.cpu0.iq.FU_type_0::SimdCmp                   0      0.00%     71.90% # Type of FU issued
system.cpu0.iq.FU_type_0::SimdCvt                   0      0.00%     71.90% # Type of FU issued
system.cpu0.iq.FU_type_0::SimdMisc                  0      0.00%     71.90% # Type of FU issued
system.cpu0.iq.FU_type_0::SimdMult                  0      0.00%     71.90% # Type of FU issued
system.cpu0.iq.FU_type_0::SimdMultAcc               0      0.00%     71.90% # Type of FU issued
system.cpu0.iq.FU_type_0::SimdShift                 0      0.00%     71.90% # Type of FU issued
system.cpu0.iq.FU_type_0::SimdShiftAcc              0      0.00%     71.90% # Type of FU issued
system.cpu0.iq.FU_type_0::SimdSqrt                  0      0.00%     71.90% # Type of FU issued
system.cpu0.iq.FU_type_0::SimdFloatAdd              0      0.00%     71.90% # Type of FU issued
system.cpu0.iq.FU_type_0::SimdFloatAlu              0      0.00%     71.90% # Type of FU issued
system.cpu0.iq.FU_type_0::SimdFloatCmp              0      0.00%     71.90% # Type of FU issued
system.cpu0.iq.FU_type_0::SimdFloatCvt              0      0.00%     71.90% # Type of FU issued
system.cpu0.iq.FU_type_0::SimdFloatDiv              0      0.00%     71.90% # Type of FU issued
system.cpu0.iq.FU_type_0::SimdFloatMisc             3      0.00%     71.90% # Type of FU issued
system.cpu0.iq.FU_type_0::SimdFloatMult             0      0.00%     71.90% # Type of FU issued
system.cpu0.iq.FU_type_0::SimdFloatMultAcc            0      0.00%     71.90% # Type of FU issued
system.cpu0.iq.FU_type_0::SimdFloatSqrt             0      0.00%     71.90% # Type of FU issued
system.cpu0.iq.FU_type_0::MemRead              139666     21.03%     92.92% # Type of FU issued
system.cpu0.iq.FU_type_0::MemWrite              47017      7.08%    100.00% # Type of FU issued
system.cpu0.iq.FU_type_0::IprAccess                 0      0.00%    100.00% # Type of FU issued
system.cpu0.iq.FU_type_0::InstPrefetch              0      0.00%    100.00% # Type of FU issued
system.cpu0.iq.FU_type_0::total                664253                       # Type of FU issued
system.cpu0.iq.rate                          0.941540                       # Inst issue rate
system.cpu0.iq.fu_busy_cnt                     111802                       # FU busy when requested
system.cpu0.iq.fu_busy_rate                  0.168312                       # FU busy rate (busy events/executed inst)
system.cpu0.iq.int_inst_queue_reads           2105692                       # Number of integer instruction queue reads
system.cpu0.iq.int_inst_queue_writes           682937                       # Number of integer instruction queue writes
system.cpu0.iq.int_inst_queue_wakeup_accesses       659776                       # Number of integer instruction queue wakeup accesses
system.cpu0.iq.fp_inst_queue_reads                 76                       # Number of floating instruction queue reads
system.cpu0.iq.fp_inst_queue_writes                28                       # Number of floating instruction queue writes
system.cpu0.iq.fp_inst_queue_wakeup_accesses           28                       # Number of floating instruction queue wakeup accesses
system.cpu0.iq.int_alu_accesses                776007                       # Number of integer alu accesses
system.cpu0.iq.fp_alu_accesses                     48                       # Number of floating point alu accesses
system.cpu0.iew.lsq.thread0.forwLoads              61                       # Number of loads that had data forwarded from stores
system.cpu0.iew.lsq.thread0.invAddrLoads            0                       # Number of loads ignored due to an invalid address
system.cpu0.iew.lsq.thread0.squashedLoads         4003                       # Number of loads squashed
system.cpu0.iew.lsq.thread0.ignoredResponses            1                       # Number of memory responses ignored because the instruction is squashed
system.cpu0.iew.lsq.thread0.memOrderViolation           17                       # Number of memory ordering violations
system.cpu0.iew.lsq.thread0.squashedStores         1202                       # Number of stores squashed
system.cpu0.iew.lsq.thread0.invAddrSwpfs            0                       # Number of software prefetches ignored due to an invalid address
system.cpu0.iew.lsq.thread0.blockedLoads            0                       # Number of blocked loads due to partial load-store forwarding
system.cpu0.iew.lsq.thread0.rescheduledLoads           12                       # Number of loads that were rescheduled
system.cpu0.iew.lsq.thread0.cacheBlocked         2698                       # Number of times an access to memory failed due to the cache being blocked
system.cpu0.iew.iewIdleCycles                       0                       # Number of cycles IEW is idle
system.cpu0.iew.iewSquashCycles                  1661                       # Number of cycles IEW is squashing
system.cpu0.iew.iewBlockCycles                    806                       # Number of cycles IEW is blocking
system.cpu0.iew.iewUnblockCycles                10632                       # Number of cycles IEW is unblocking
system.cpu0.iew.iewDispatchedInsts             669031                       # Number of instructions dispatched to IQ
system.cpu0.iew.iewDispSquashedInsts                0                       # Number of squashed instructions skipped by dispatch
system.cpu0.iew.iewDispLoadInsts               140518                       # Number of dispatched load instructions
system.cpu0.iew.iewDispStoreInsts               47738                       # Number of dispatched store instructions
system.cpu0.iew.iewDispNonSpecInsts               115                       # Number of dispatched non-speculative instructions
system.cpu0.iew.iewIQFullEvents                     8                       # Number of times the IQ has become full, causing a stall
system.cpu0.iew.iewLSQFullEvents                10620                       # Number of times the LSQ has become full, causing a stall
system.cpu0.iew.memOrderViolationEvents            17                       # Number of memory order violations
system.cpu0.iew.predictedTakenIncorrect           682                       # Number of branches that were predicted taken incorrectly
system.cpu0.iew.predictedNotTakenIncorrect          995                       # Number of branches that were predicted not taken incorrectly
system.cpu0.iew.branchMispredicts                1677                       # Number of branch mispredicts detected at execute
system.cpu0.iew.iewExecutedInsts               661010                       # Number of executed instructions
system.cpu0.iew.iewExecLoadInsts               138166                       # Number of load instructions executed
system.cpu0.iew.iewExecSquashedInsts             3243                       # Number of squashed instructions skipped in execute
system.cpu0.iew.exec_swp                            0                       # number of swp insts executed
system.cpu0.iew.exec_nop                           17                       # number of nop insts executed
[...]
system.cpu7.icache.overall_miss_latency::cpu7.inst      4954498                       # number of overall miss cycles
system.cpu7.icache.overall_miss_latency::total      4954498                       # number of overall miss cycles
system.cpu7.icache.ReadReq_accesses::cpu7.inst       158652                       # number of ReadReq accesses(hits+misses)
system.cpu7.icache.ReadReq_accesses::total       158652                       # number of ReadReq accesses(hits+misses)
system.cpu7.icache.demand_accesses::cpu7.inst       158652                       # number of demand (read+write) accesses
system.cpu7.icache.demand_accesses::total       158652                       # number of demand (read+write) accesses
system.cpu7.icache.overall_accesses::cpu7.inst       158652                       # number of overall (read+write) accesses
system.cpu7.icache.overall_accesses::total       158652                       # number of overall (read+write) accesses
system.cpu7.icache.ReadReq_miss_rate::cpu7.inst     0.000429                       # miss rate for ReadReq accesses
system.cpu7.icache.ReadReq_miss_rate::total     0.000429                       # miss rate for ReadReq accesses
system.cpu7.icache.demand_miss_rate::cpu7.inst     0.000429                       # miss rate for demand accesses
system.cpu7.icache.demand_miss_rate::total     0.000429                       # miss rate for demand accesses
system.cpu7.icache.overall_miss_rate::cpu7.inst     0.000429                       # miss rate for overall accesses
system.cpu7.icache.overall_miss_rate::total     0.000429                       # miss rate for overall accesses
system.cpu7.icache.ReadReq_avg_miss_latency::cpu7.inst 72860.264706                       # average ReadReq miss latency
system.cpu7.icache.ReadReq_avg_miss_latency::total 72860.264706                       # average ReadReq miss latency
system.cpu7.icache.demand_avg_miss_latency::cpu7.inst 72860.264706                       # average overall miss latency
system.cpu7.icache.demand_avg_miss_latency::total 72860.264706                       # average overall miss latency
system.cpu7.icache.overall_avg_miss_latency::cpu7.inst 72860.264706                       # average overall miss latency
system.cpu7.icache.overall_avg_miss_latency::total 72860.264706                       # average overall miss latency
system.cpu7.icache.blocked_cycles::no_mshrs         1348                       # number of cycles access was blocked
system.cpu7.icache.blocked_cycles::no_targets            0                       # number of cycles access was blocked
system.cpu7.icache.blocked::no_mshrs               11                       # number of cycles access was blocked
system.cpu7.icache.blocked::no_targets              0                       # number of cycles access was blocked
system.cpu7.icache.avg_blocked_cycles::no_mshrs   122.545455                       # average number of cycles each access was blocked
system.cpu7.icache.avg_blocked_cycles::no_targets          nan                       # average number of cycles each access was blocked
system.cpu7.icache.fast_writes                      0                       # number of fast writes performed
system.cpu7.icache.cache_copies                     0                       # number of cache copies performed
system.cpu7.icache.ReadReq_mshr_hits::cpu7.inst           11                       # number of ReadReq MSHR hits
system.cpu7.icache.ReadReq_mshr_hits::total           11                       # number of ReadReq MSHR hits
system.cpu7.icache.demand_mshr_hits::cpu7.inst           11                       # number of demand (read+write) MSHR hits
system.cpu7.icache.demand_mshr_hits::total           11                       # number of demand (read+write) MSHR hits
system.cpu7.icache.overall_mshr_hits::cpu7.inst           11                       # number of overall MSHR hits
system.cpu7.icache.overall_mshr_hits::total           11                       # number of overall MSHR hits
system.cpu7.icache.ReadReq_mshr_misses::cpu7.inst           57                       # number of ReadReq MSHR misses
system.cpu7.icache.ReadReq_mshr_misses::total           57                       # number of ReadReq MSHR misses
system.cpu7.icache.demand_mshr_misses::cpu7.inst           57                       # number of demand (read+write) MSHR misses
system.cpu7.icache.demand_mshr_misses::total           57                       # number of demand (read+write) MSHR misses
system.cpu7.icache.overall_mshr_misses::cpu7.inst           57                       # number of overall MSHR misses
system.cpu7.icache.overall_mshr_misses::total           57                       # number of overall MSHR misses
system.cpu7.icache.ReadReq_mshr_miss_latency::cpu7.inst      4292248                       # number of ReadReq MSHR miss cycles
system.cpu7.icache.ReadReq_mshr_miss_latency::total      4292248                       # number of ReadReq MSHR miss cycles
system.cpu7.icache.demand_mshr_miss_latency::cpu7.inst      4292248                       # number of demand (read+write) MSHR miss cycles
system.cpu7.icache.demand_mshr_miss_latency::total      4292248                       # number of demand (read+write) MSHR miss cycles
system.cpu7.icache.overall_mshr_miss_latency::cpu7.inst      4292248                       # number of overall MSHR miss cycles
system.cpu7.icache.overall_mshr_miss_latency::total      4292248                       # number of overall MSHR miss cycles
system.cpu7.icache.ReadReq_mshr_miss_rate::cpu7.inst     0.000359                       # mshr miss rate for ReadReq accesses
system.cpu7.icache.ReadReq_mshr_miss_rate::total     0.000359                       # mshr miss rate for ReadReq accesses
system.cpu7.icache.demand_mshr_miss_rate::cpu7.inst     0.000359                       # mshr miss rate for demand accesses
system.cpu7.icache.demand_mshr_miss_rate::total     0.000359                       # mshr miss rate for demand accesses
system.cpu7.icache.overall_mshr_miss_rate::cpu7.inst     0.000359                       # mshr miss rate for overall accesses
system.cpu7.icache.overall_mshr_miss_rate::total     0.000359                       # mshr miss rate for overall accesses
system.cpu7.icache.ReadReq_avg_mshr_miss_latency::cpu7.inst 75302.596491                       # average ReadReq mshr miss latency
system.cpu7.icache.ReadReq_avg_mshr_miss_latency::total 75302.596491                       # average ReadReq mshr miss latency
system.cpu7.icache.demand_avg_mshr_miss_latency::cpu7.inst 75302.596491                       # average overall mshr miss latency
system.cpu7.icache.demand_avg_mshr_miss_latency::total 75302.596491                       # average overall mshr miss latency
system.cpu7.icache.overall_avg_mshr_miss_latency::cpu7.inst 75302.596491                       # average overall mshr miss latency
system.cpu7.icache.overall_avg_mshr_miss_latency::total 75302.596491                       # average overall mshr miss latency
system.cpu7.icache.no_allocate_misses               0                       # Number of misses that were no-allocate
system.membus.trans_dist::ReadReq               12396                       # Transaction distribution
system.membus.trans_dist::ReadResp              12395                       # Transaction distribution
system.membus.trans_dist::Writeback              5683                       # Transaction distribution
system.membus.trans_dist::UpgradeReq               22                       # Transaction distribution
system.membus.trans_dist::SCUpgradeReq             23                       # Transaction distribution
system.membus.trans_dist::UpgradeResp              45                       # Transaction distribution
system.membus.trans_dist::SCUpgradeFailReq            2                       # Transaction distribution
system.membus.trans_dist::UpgradeFailResp            2                       # Transaction distribution
system.membus.trans_dist::ReadExReq              6540                       # Transaction distribution
system.membus.trans_dist::ReadExResp             6540                       # Transaction distribution
system.membus.pkt_count_system.cpu0.icache.mem_side::system.mem_ctrls.port         1259                       # Packet count per connected master and slave (bytes)
system.membus.pkt_count_system.cpu0.dcache.mem_side::system.mem_ctrls.port        10398                       # Packet count per connected master and slave (bytes)
system.membus.pkt_count_system.cpu1.icache.mem_side::system.mem_ctrls.port          110                       # Packet count per connected master and slave (bytes)
system.membus.pkt_count_system.cpu1.dcache.mem_side::system.mem_ctrls.port         2984                       # Packet count per connected master and slave (bytes)
system.membus.pkt_count_system.cpu2.icache.mem_side::system.mem_ctrls.port          110                       # Packet count per connected master and slave (bytes)
system.membus.pkt_count_system.cpu2.dcache.mem_side::system.mem_ctrls.port         3012                       # Packet count per connected master and slave (bytes)
system.membus.pkt_count_system.cpu3.icache.mem_side::system.mem_ctrls.port          112                       # Packet count per connected master and slave (bytes)
system.membus.pkt_count_system.cpu3.dcache.mem_side::system.mem_ctrls.port         3083                       # Packet count per connected master and slave (bytes)
system.membus.pkt_count_system.cpu4.icache.mem_side::system.mem_ctrls.port          110                       # Packet count per connected master and slave (bytes)
system.membus.pkt_count_system.cpu4.dcache.mem_side::system.mem_ctrls.port         3130                       # Packet count per connected master and slave (bytes)
system.membus.pkt_count_system.cpu5.icache.mem_side::system.mem_ctrls.port          112                       # Packet count per connected master and slave (bytes)
system.membus.pkt_count_system.cpu5.dcache.mem_side::system.mem_ctrls.port         3170                       # Packet count per connected master and slave (bytes)
system.membus.pkt_count_system.cpu6.icache.mem_side::system.mem_ctrls.port          114                       # Packet count per connected master and slave (bytes)
system.membus.pkt_count_system.cpu6.dcache.mem_side::system.mem_ctrls.port         3039                       # Packet count per connected master and slave (bytes)
system.membus.pkt_count_system.cpu7.icache.mem_side::system.mem_ctrls.port          114                       # Packet count per connected master and slave (bytes)
system.membus.pkt_count_system.cpu7.dcache.mem_side::system.mem_ctrls.port         3072                       # Packet count per connected master and slave (bytes)
system.membus.pkt_count::total                  33929                       # Packet count per connected master and slave (bytes)
system.membus.pkt_size_system.cpu0.icache.mem_side::system.mem_ctrls.port        40256                       # Cumulative packet size per connected master and slave (bytes)
system.membus.pkt_size_system.cpu0.dcache.mem_side::system.mem_ctrls.port       402816                       # Cumulative packet size per connected master and slave (bytes)
system.membus.pkt_size_system.cpu1.icache.mem_side::system.mem_ctrls.port         3520                       # Cumulative packet size per connected master and slave (bytes)
system.membus.pkt_size_system.cpu1.dcache.mem_side::system.mem_ctrls.port        66880                       # Cumulative packet size per connected master and slave (bytes)
system.membus.pkt_size_system.cpu2.icache.mem_side::system.mem_ctrls.port         3520                       # Cumulative packet size per connected master and slave (bytes)
system.membus.pkt_size_system.cpu2.dcache.mem_side::system.mem_ctrls.port        65792                       # Cumulative packet size per connected master and slave (bytes)
system.membus.pkt_size_system.cpu3.icache.mem_side::system.mem_ctrls.port         3584                       # Cumulative packet size per connected master and slave (bytes)
system.membus.pkt_size_system.cpu3.dcache.mem_side::system.mem_ctrls.port        69696                       # Cumulative packet size per connected master and slave (bytes)
system.membus.pkt_size_system.cpu4.icache.mem_side::system.mem_ctrls.port         3520                       # Cumulative packet size per connected master and slave (bytes)
system.membus.pkt_size_system.cpu4.dcache.mem_side::system.mem_ctrls.port        72448                       # Cumulative packet size per connected master and slave (bytes)
system.membus.pkt_size_system.cpu5.icache.mem_side::system.mem_ctrls.port         3584                       # Cumulative packet size per connected master and slave (bytes)
system.membus.pkt_size_system.cpu5.dcache.mem_side::system.mem_ctrls.port        76096                       # Cumulative packet size per connected master and slave (bytes)
system.membus.pkt_size_system.cpu6.icache.mem_side::system.mem_ctrls.port         3648                       # Cumulative packet size per connected master and slave (bytes)
system.membus.pkt_size_system.cpu6.dcache.mem_side::system.mem_ctrls.port        68096                       # Cumulative packet size per connected master and slave (bytes)
system.membus.pkt_size_system.cpu7.icache.mem_side::system.mem_ctrls.port         3648                       # Cumulative packet size per connected master and slave (bytes)
system.membus.pkt_size_system.cpu7.dcache.mem_side::system.mem_ctrls.port        68480                       # Cumulative packet size per connected master and slave (bytes)
system.membus.pkt_size::total                  955584                       # Cumulative packet size per connected master and slave (bytes)
system.membus.snoops                             9719                       # Total snoops (count)
system.membus.snoop_fanout::samples             24666                       # Request fanout histogram
system.membus.snoop_fanout::mean                   15                       # Request fanout histogram
system.membus.snoop_fanout::stdev                   0                       # Request fanout histogram
system.membus.snoop_fanout::underflows              0      0.00%      0.00% # Request fanout histogram
system.membus.snoop_fanout::0                       0      0.00%      0.00% # Request fanout histogram
system.membus.snoop_fanout::1                       0      0.00%      0.00% # Request fanout histogram
system.membus.snoop_fanout::2                       0      0.00%      0.00% # Request fanout histogram
system.membus.snoop_fanout::3                       0      0.00%      0.00% # Request fanout histogram
system.membus.snoop_fanout::4                       0      0.00%      0.00% # Request fanout histogram
system.membus.snoop_fanout::5                       0      0.00%      0.00% # Request fanout histogram
system.membus.snoop_fanout::6                       0      0.00%      0.00% # Request fanout histogram
system.membus.snoop_fanout::7                       0      0.00%      0.00% # Request fanout histogram
system.membus.snoop_fanout::8                       0      0.00%      0.00% # Request fanout histogram
system.membus.snoop_fanout::9                       0      0.00%      0.00% # Request fanout histogram
system.membus.snoop_fanout::10                      0      0.00%      0.00% # Request fanout histogram
system.membus.snoop_fanout::11                      0      0.00%      0.00% # Request fanout histogram
system.membus.snoop_fanout::12                      0      0.00%      0.00% # Request fanout histogram
system.membus.snoop_fanout::13                      0      0.00%      0.00% # Request fanout histogram
system.membus.snoop_fanout::14                      0      0.00%      0.00% # Request fanout histogram
system.membus.snoop_fanout::15                  24666    100.00%    100.00% # Request fanout histogram
system.membus.snoop_fanout::16                      0      0.00%    100.00% # Request fanout histogram
system.membus.snoop_fanout::overflows               0      0.00%    100.00% # Request fanout histogram
system.membus.snoop_fanout::min_value              15                       # Request fanout histogram
system.membus.snoop_fanout::max_value              15                       # Request fanout histogram
system.membus.snoop_fanout::total               24666                       # Request fanout histogram
system.membus.reqLayer0.occupancy            51683998                       # Layer occupancy (ticks)
system.membus.reqLayer0.utilization              14.7                       # Layer utilization (%)
system.membus.respLayer1.occupancy            3350000                       # Layer occupancy (ticks)
system.membus.respLayer1.utilization              0.9                       # Layer utilization (%)
system.membus.respLayer2.occupancy           21363483                       # Layer occupancy (ticks)
system.membus.respLayer2.utilization              6.1                       # Layer utilization (%)
system.membus.respLayer5.occupancy             294000                       # Layer occupancy (ticks)
system.membus.respLayer5.utilization              0.1                       # Layer utilization (%)
system.membus.respLayer6.occupancy            9830093                       # Layer occupancy (ticks)
system.membus.respLayer6.utilization              2.8                       # Layer utilization (%)
system.membus.respLayer9.occupancy             289500                       # Layer occupancy (ticks)
system.membus.respLayer9.utilization              0.1                       # Layer utilization (%)
system.membus.respLayer10.occupancy           9974955                       # Layer occupancy (ticks)
system.membus.respLayer10.utilization             2.8                       # Layer utilization (%)
system.membus.respLayer13.occupancy            300000                       # Layer occupancy (ticks)
system.membus.respLayer13.utilization             0.1                       # Layer utilization (%)
system.membus.respLayer14.occupancy          10093622                       # Layer occupancy (ticks)
system.membus.respLayer14.utilization             2.9                       # Layer utilization (%)
system.membus.respLayer17.occupancy            296250                       # Layer occupancy (ticks)
system.membus.respLayer17.utilization             0.1                       # Layer utilization (%)
system.membus.respLayer18.occupancy          10119626                       # Layer occupancy (ticks)
system.membus.respLayer18.utilization             2.9                       # Layer utilization (%)
system.membus.respLayer21.occupancy            302500                       # Layer occupancy (ticks)
system.membus.respLayer21.utilization             0.1                       # Layer utilization (%)
system.membus.respLayer22.occupancy          10076575                       # Layer occupancy (ticks)
system.membus.respLayer22.utilization             2.9                       # Layer utilization (%)
system.membus.respLayer25.occupancy            307500                       # Layer occupancy (ticks)
system.membus.respLayer25.utilization             0.1                       # Layer utilization (%)
system.membus.respLayer26.occupancy          10002359                       # Layer occupancy (ticks)
system.membus.respLayer26.utilization             2.8                       # Layer utilization (%)
system.membus.respLayer29.occupancy            309000                       # Layer occupancy (ticks)
system.membus.respLayer29.utilization             0.1                       # Layer utilization (%)
system.membus.respLayer30.occupancy          10107881                       # Layer occupancy (ticks)
system.membus.respLayer30.utilization             2.9                       # Layer utilization (%)

---------- End Simulation Statistics   ----------
